output/1_TAP2_1/Arranjos_1_TAP2_1.dss
New "Linecode.1_1" nphases=1 basefreq=60 r1="0.9750000238418579" x1=0.41670000553131104 units=km normamps=520.0
New "Linecode.1_2" nphases=2 basefreq=60 r1="0.9750000238418579" x1=0.41670000553131104 units=km normamps=520.0
New "Linecode.1_3" nphases=3 basefreq=60 r1="0.9750000238418579" x1=0.41670000553131104 units=km normamps=520.0
New "Linecode.1_4" nphases=4 basefreq=60 r1="0.9750000238418579" x1=0.41670000553131104 units=km normamps=520.0

New "Linecode.2_1" nphases=1 basefreq=60 r1="1.5509999990463257" x1=0.4494999945163727 units=km normamps=520.0
New "Linecode.2_2" nphases=2 basefreq=60 r1="1.5509999990463257" x1=0.4494999945163727 units=km normamps=520.0
New "Linecode.2_3" nphases=3 basefreq=60 r1="1.5509999990463257" x1=0.4494999945163727 units=km normamps=520.0
New "Linecode.2_4" nphases=4 basefreq=60 r1="1.5509999990463257" x1=0.4494999945163727 units=km normamps=520.0

New "Linecode.3_1" nphases=1 basefreq=60 r1="0.19499999284744263" x1=0.2802000045776367 units=km normamps=520.0
New "Linecode.3_2" nphases=2 basefreq=60 r1="0.19499999284744263" x1=0.2802000045776367 units=km normamps=520.0
New "Linecode.3_3" nphases=3 basefreq=60 r1="0.19499999284744263" x1=0.2802000045776367 units=km normamps=520.0
New "Linecode.3_4" nphases=4 basefreq=60 r1="0.19499999284744263" x1=0.2802000045776367 units=km normamps=520.0

New "Linecode.4_1" nphases=1 basefreq=60 r1="0.6129999756813049" x1=0.3379000127315521 units=km normamps=520.0
New "Linecode.4_2" nphases=2 basefreq=60 r1="0.6129999756813049" x1=0.3379000127315521 units=km normamps=520.0
New "Linecode.4_3" nphases=3 basefreq=60 r1="0.6129999756813049" x1=0.3379000127315521 units=km normamps=520.0
New "Linecode.4_4" nphases=4 basefreq=60 r1="0.6129999756813049" x1=0.3379000127315521 units=km normamps=520.0

New "Linecode.8_1" nphases=1 basefreq=60 r1="0.9750000238418579" x1=0.35760000348091125 units=km normamps=520.0
New "Linecode.8_2" nphases=2 basefreq=60 r1="0.9750000238418579" x1=0.35760000348091125 units=km normamps=520.0
New "Linecode.8_3" nphases=3 basefreq=60 r1="0.9750000238418579" x1=0.35760000348091125 units=km normamps=520.0
New "Linecode.8_4" nphases=4 basefreq=60 r1="0.9750000238418579" x1=0.35760000348091125 units=km normamps=520.0

New "Linecode.12_1" nphases=1 basefreq=60 r1="0.6200000047683716" x1=0.46799999475479126 units=km normamps=520.0
New "Linecode.12_2" nphases=2 basefreq=60 r1="0.6200000047683716" x1=0.46799999475479126 units=km normamps=520.0
New "Linecode.12_3" nphases=3 basefreq=60 r1="0.6200000047683716" x1=0.46799999475479126 units=km normamps=520.0
New "Linecode.12_4" nphases=4 basefreq=60 r1="0.6200000047683716" x1=0.46799999475479126 units=km normamps=520.0

New "Linecode.18_1" nphases=1 basefreq=60 r1="0.984000027179718" x1=0.46000000834465027 units=km normamps=520.0
New "Linecode.18_2" nphases=2 basefreq=60 r1="0.984000027179718" x1=0.46000000834465027 units=km normamps=520.0
New "Linecode.18_3" nphases=3 basefreq=60 r1="0.984000027179718" x1=0.46000000834465027 units=km normamps=520.0
New "Linecode.18_4" nphases=4 basefreq=60 r1="0.984000027179718" x1=0.46000000834465027 units=km normamps=520.0

New "Linecode.23_1" nphases=1 basefreq=60 r1="0.984000027179718" x1=0.46000000834465027 units=km normamps=520.0
New "Linecode.23_2" nphases=2 basefreq=60 r1="0.984000027179718" x1=0.46000000834465027 units=km normamps=520.0
New "Linecode.23_3" nphases=3 basefreq=60 r1="0.984000027179718" x1=0.46000000834465027 units=km normamps=520.0
New "Linecode.23_4" nphases=4 basefreq=60 r1="0.984000027179718" x1=0.46000000834465027 units=km normamps=520.0

New "Linecode.26_1" nphases=1 basefreq=60 r1="0.984000027179718" x1=0.46000000834465027 units=km normamps=520.0
New "Linecode.26_2" nphases=2 basefreq=60 r1="0.984000027179718" x1=0.46000000834465027 units=km normamps=520.0
New "Linecode.26_3" nphases=3 basefreq=60 r1="0.984000027179718" x1=0.46000000834465027 units=km normamps=520.0
New "Linecode.26_4" nphases=4 basefreq=60 r1="0.984000027179718" x1=0.46000000834465027 units=km normamps=520.0

New "Linecode.27_1" nphases=1 basefreq=60 r1="1.5509999990463257" x1=0.4494999945163727 units=km normamps=520.0
New "Linecode.27_2" nphases=2 basefreq=60 r1="1.5509999990463257" x1=0.4494999945163727 units=km normamps=520.0
New "Linecode.27_3" nphases=3 basefreq=60 r1="1.5509999990463257" x1=0.4494999945163727 units=km normamps=520.0
New "Linecode.27_4" nphases=4 basefreq=60 r1="1.5509999990463257" x1=0.4494999945163727 units=km normamps=520.0

New "Linecode.28_1" nphases=1 basefreq=60 r1="1.5509999990463257" x1=0.4494999945163727 units=km normamps=520.0
New "Linecode.28_2" nphases=2 basefreq=60 r1="1.5509999990463257" x1=0.4494999945163727 units=km normamps=520.0
New "Linecode.28_3" nphases=3 basefreq=60 r1="1.5509999990463257" x1=0.4494999945163727 units=km normamps=520.0
New "Linecode.28_4" nphases=4 basefreq=60 r1="1.5509999990463257" x1=0.4494999945163727 units=km normamps=520.0

New "Linecode.30_1" nphases=1 basefreq=60 r1="1.5640000104904175" x1=0.5080000162124634 units=km normamps=520.0
New "Linecode.30_2" nphases=2 basefreq=60 r1="1.5640000104904175" x1=0.5080000162124634 units=km normamps=520.0
New "Linecode.30_3" nphases=3 basefreq=60 r1="1.5640000104904175" x1=0.5080000162124634 units=km normamps=520.0
New "Linecode.30_4" nphases=4 basefreq=60 r1="1.5640000104904175" x1=0.5080000162124634 units=km normamps=520.0

New "Linecode.35_1" nphases=1 basefreq=60 r1="1.5640000104904175" x1=0.5080000162124634 units=km normamps=520.0
New "Linecode.35_2" nphases=2 basefreq=60 r1="1.5640000104904175" x1=0.5080000162124634 units=km normamps=520.0
New "Linecode.35_3" nphases=3 basefreq=60 r1="1.5640000104904175" x1=0.5080000162124634 units=km normamps=520.0
New "Linecode.35_4" nphases=4 basefreq=60 r1="1.5640000104904175" x1=0.5080000162124634 units=km normamps=520.0

New "Linecode.37_1" nphases=1 basefreq=60 r1="1.5640000104904175" x1=0.5080000162124634 units=km normamps=520.0
New "Linecode.37_2" nphases=2 basefreq=60 r1="1.5640000104904175" x1=0.5080000162124634 units=km normamps=520.0
New "Linecode.37_3" nphases=3 basefreq=60 r1="1.5640000104904175" x1=0.5080000162124634 units=km normamps=520.0
New "Linecode.37_4" nphases=4 basefreq=60 r1="1.5640000104904175" x1=0.5080000162124634 units=km normamps=520.0

New "Linecode.39_1" nphases=1 basefreq=60 r1="2.3889999389648438" x1=0.5249999761581421 units=km normamps=520.0
New "Linecode.39_2" nphases=2 basefreq=60 r1="2.3889999389648438" x1=0.5249999761581421 units=km normamps=520.0
New "Linecode.39_3" nphases=3 basefreq=60 r1="2.3889999389648438" x1=0.5249999761581421 units=km normamps=520.0
New "Linecode.39_4" nphases=4 basefreq=60 r1="2.3889999389648438" x1=0.5249999761581421 units=km normamps=520.0

New "Linecode.40_1" nphases=1 basefreq=60 r1="2.3889999389648438" x1=0.5249999761581421 units=km normamps=520.0
New "Linecode.40_2" nphases=2 basefreq=60 r1="2.3889999389648438" x1=0.5249999761581421 units=km normamps=520.0
New "Linecode.40_3" nphases=3 basefreq=60 r1="2.3889999389648438" x1=0.5249999761581421 units=km normamps=520.0
New "Linecode.40_4" nphases=4 basefreq=60 r1="2.3889999389648438" x1=0.5249999761581421 units=km normamps=520.0

New "Linecode.41_1" nphases=1 basefreq=60 r1="2.3889999389648438" x1=0.5249999761581421 units=km normamps=520.0
New "Linecode.41_2" nphases=2 basefreq=60 r1="2.3889999389648438" x1=0.5249999761581421 units=km normamps=520.0
New "Linecode.41_3" nphases=3 basefreq=60 r1="2.3889999389648438" x1=0.5249999761581421 units=km normamps=520.0
New "Linecode.41_4" nphases=4 basefreq=60 r1="2.3889999389648438" x1=0.5249999761581421 units=km normamps=520.0

New "Linecode.43_1" nphases=1 basefreq=60 r1="0.6129999756813049" x1=0.3379000127315521 units=km normamps=520.0
New "Linecode.43_2" nphases=2 basefreq=60 r1="0.6129999756813049" x1=0.3379000127315521 units=km normamps=520.0
New "Linecode.43_3" nphases=3 basefreq=60 r1="0.6129999756813049" x1=0.3379000127315521 units=km normamps=520.0
New "Linecode.43_4" nphases=4 basefreq=60 r1="0.6129999756813049" x1=0.3379000127315521 units=km normamps=520.0

New "Linecode.44_1" nphases=1 basefreq=60 r1="0.6129999756813049" x1=0.3379000127315521 units=km normamps=520.0
New "Linecode.44_2" nphases=2 basefreq=60 r1="0.6129999756813049" x1=0.3379000127315521 units=km normamps=520.0
New "Linecode.44_3" nphases=3 basefreq=60 r1="0.6129999756813049" x1=0.3379000127315521 units=km normamps=520.0
New "Linecode.44_4" nphases=4 basefreq=60 r1="0.6129999756813049" x1=0.3379000127315521 units=km normamps=520.0

New "Linecode.56_1" nphases=1 basefreq=60 r1="0.9750000238418579" x1=0.35760000348091125 units=km normamps=520.0
New "Linecode.56_2" nphases=2 basefreq=60 r1="0.9750000238418579" x1=0.35760000348091125 units=km normamps=520.0
New "Linecode.56_3" nphases=3 basefreq=60 r1="0.9750000238418579" x1=0.35760000348091125 units=km normamps=520.0
New "Linecode.56_4" nphases=4 basefreq=60 r1="0.9750000238418579" x1=0.35760000348091125 units=km normamps=520.0

New "Linecode.63_1" nphases=1 basefreq=60 r1="1.5509999990463257" x1=0.4494999945163727 units=km normamps=520.0
New "Linecode.63_2" nphases=2 basefreq=60 r1="1.5509999990463257" x1=0.4494999945163727 units=km normamps=520.0
New "Linecode.63_3" nphases=3 basefreq=60 r1="1.5509999990463257" x1=0.4494999945163727 units=km normamps=520.0
New "Linecode.63_4" nphases=4 basefreq=60 r1="1.5509999990463257" x1=0.4494999945163727 units=km normamps=520.0

New "Linecode.67_1" nphases=1 basefreq=60 r1="0.6129999756813049" x1=0.3878999948501587 units=km normamps=520.0
New "Linecode.67_2" nphases=2 basefreq=60 r1="0.6129999756813049" x1=0.3878999948501587 units=km normamps=520.0
New "Linecode.67_3" nphases=3 basefreq=60 r1="0.6129999756813049" x1=0.3878999948501587 units=km normamps=520.0
New "Linecode.67_4" nphases=4 basefreq=60 r1="0.6129999756813049" x1=0.3878999948501587 units=km normamps=520.0

New "Linecode.68_1" nphases=1 basefreq=60 r1="0.6129999756813049" x1=0.3869999945163727 units=km normamps=520.0
New "Linecode.68_2" nphases=2 basefreq=60 r1="0.6129999756813049" x1=0.3869999945163727 units=km normamps=520.0
New "Linecode.68_3" nphases=3 basefreq=60 r1="0.6129999756813049" x1=0.3869999945163727 units=km normamps=520.0
New "Linecode.68_4" nphases=4 basefreq=60 r1="0.6129999756813049" x1=0.3869999945163727 units=km normamps=520.0

New "Linecode.70_1" nphases=1 basefreq=60 r1="0.3059999942779541" x1=0.31299999356269836 units=km normamps=520.0
New "Linecode.70_2" nphases=2 basefreq=60 r1="0.3059999942779541" x1=0.31299999356269836 units=km normamps=520.0
New "Linecode.70_3" nphases=3 basefreq=60 r1="0.3059999942779541" x1=0.31299999356269836 units=km normamps=520.0
New "Linecode.70_4" nphases=4 basefreq=60 r1="0.3059999942779541" x1=0.31299999356269836 units=km normamps=520.0

New "Linecode.72_1" nphases=1 basefreq=60 r1="1.5640000104904175" x1=0.47589999437332153 units=km normamps=520.0
New "Linecode.72_2" nphases=2 basefreq=60 r1="1.5640000104904175" x1=0.47589999437332153 units=km normamps=520.0
New "Linecode.72_3" nphases=3 basefreq=60 r1="1.5640000104904175" x1=0.47589999437332153 units=km normamps=520.0
New "Linecode.72_4" nphases=4 basefreq=60 r1="1.5640000104904175" x1=0.47589999437332153 units=km normamps=520.0

New "Linecode.74_1" nphases=1 basefreq=60 r1="0.9750000238418579" x1=0.35760000348091125 units=km normamps=520.0
New "Linecode.74_2" nphases=2 basefreq=60 r1="0.9750000238418579" x1=0.35760000348091125 units=km normamps=520.0
New "Linecode.74_3" nphases=3 basefreq=60 r1="0.9750000238418579" x1=0.35760000348091125 units=km normamps=520.0
New "Linecode.74_4" nphases=4 basefreq=60 r1="0.9750000238418579" x1=0.35760000348091125 units=km normamps=520.0

New "Linecode.79_1" nphases=1 basefreq=60 r1="0.3059999942779541" x1=0.31299999356269836 units=km normamps=520.0
New "Linecode.79_2" nphases=2 basefreq=60 r1="0.3059999942779541" x1=0.31299999356269836 units=km normamps=520.0
New "Linecode.79_3" nphases=3 basefreq=60 r1="0.3059999942779541" x1=0.31299999356269836 units=km normamps=520.0
New "Linecode.79_4" nphases=4 basefreq=60 r1="0.3059999942779541" x1=0.31299999356269836 units=km normamps=520.0

New "Linecode.83_1" nphases=1 basefreq=60 r1="0.6129999756813049" x1=0.3871000111103058 units=km normamps=520.0
New "Linecode.83_2" nphases=2 basefreq=60 r1="0.6129999756813049" x1=0.3871000111103058 units=km normamps=520.0
New "Linecode.83_3" nphases=3 basefreq=60 r1="0.6129999756813049" x1=0.3871000111103058 units=km normamps=520.0
New "Linecode.83_4" nphases=4 basefreq=60 r1="0.6129999756813049" x1=0.3871000111103058 units=km normamps=520.0

New "Linecode.84_1" nphases=1 basefreq=60 r1="0.9750000238418579" x1=0.35760000348091125 units=km normamps=520.0
New "Linecode.84_2" nphases=2 basefreq=60 r1="0.9750000238418579" x1=0.35760000348091125 units=km normamps=520.0
New "Linecode.84_3" nphases=3 basefreq=60 r1="0.9750000238418579" x1=0.35760000348091125 units=km normamps=520.0
New "Linecode.84_4" nphases=4 basefreq=60 r1="0.9750000238418579" x1=0.35760000348091125 units=km normamps=520.0

New "Linecode.85_1" nphases=1 basefreq=60 r1="0.9909999966621399" x1=0.11699999868869781 units=km normamps=520.0
New "Linecode.85_2" nphases=2 basefreq=60 r1="0.9909999966621399" x1=0.11699999868869781 units=km normamps=520.0
New "Linecode.85_3" nphases=3 basefreq=60 r1="0.9909999966621399" x1=0.11699999868869781 units=km normamps=520.0
New "Linecode.85_4" nphases=4 basefreq=60 r1="0.9909999966621399" x1=0.11699999868869781 units=km normamps=520.0

New "Linecode.86_1" nphases=1 basefreq=60 r1="2.178999900817871" x1=0.11500000208616257 units=km normamps=520.0
New "Linecode.86_2" nphases=2 basefreq=60 r1="2.178999900817871" x1=0.11500000208616257 units=km normamps=520.0
New "Linecode.86_3" nphases=3 basefreq=60 r1="2.178999900817871" x1=0.11500000208616257 units=km normamps=520.0
New "Linecode.86_4" nphases=4 basefreq=60 r1="2.178999900817871" x1=0.11500000208616257 units=km normamps=520.0

New "Linecode.87_1" nphases=1 basefreq=60 r1="2.0820000171661377" x1=0.12070000171661377 units=km normamps=520.0
New "Linecode.87_2" nphases=2 basefreq=60 r1="2.0820000171661377" x1=0.12070000171661377 units=km normamps=520.0
New "Linecode.87_3" nphases=3 basefreq=60 r1="2.0820000171661377" x1=0.12070000171661377 units=km normamps=520.0
New "Linecode.87_4" nphases=4 basefreq=60 r1="2.0820000171661377" x1=0.12070000171661377 units=km normamps=520.0

New "Linecode.88_1" nphases=1 basefreq=60 r1="1.5509999990463257" x1=0.4494999945163727 units=km normamps=520.0
New "Linecode.88_2" nphases=2 basefreq=60 r1="1.5509999990463257" x1=0.4494999945163727 units=km normamps=520.0
New "Linecode.88_3" nphases=3 basefreq=60 r1="1.5509999990463257" x1=0.4494999945163727 units=km normamps=520.0
New "Linecode.88_4" nphases=4 basefreq=60 r1="1.5509999990463257" x1=0.4494999945163727 units=km normamps=520.0

New "Linecode.91_1" nphases=1 basefreq=60 r1="0.19499999284744263" x1=0.2912999987602234 units=km normamps=520.0
New "Linecode.91_2" nphases=2 basefreq=60 r1="0.19499999284744263" x1=0.2912999987602234 units=km normamps=520.0
New "Linecode.91_3" nphases=3 basefreq=60 r1="0.19499999284744263" x1=0.2912999987602234 units=km normamps=520.0
New "Linecode.91_4" nphases=4 basefreq=60 r1="0.19499999284744263" x1=0.2912999987602234 units=km normamps=520.0

New "Linecode.92_1" nphases=1 basefreq=60 r1="3.5139999389648438" x1=0.09700000286102295 units=km normamps=520.0
New "Linecode.92_2" nphases=2 basefreq=60 r1="3.5139999389648438" x1=0.09700000286102295 units=km normamps=520.0
New "Linecode.92_3" nphases=3 basefreq=60 r1="3.5139999389648438" x1=0.09700000286102295 units=km normamps=520.0
New "Linecode.92_4" nphases=4 basefreq=60 r1="3.5139999389648438" x1=0.09700000286102295 units=km normamps=520.0

New "Linecode.93_1" nphases=1 basefreq=60 r1="2.178999900817871" x1=0.11500000208616257 units=km normamps=520.0
New "Linecode.93_2" nphases=2 basefreq=60 r1="2.178999900817871" x1=0.11500000208616257 units=km normamps=520.0
New "Linecode.93_3" nphases=3 basefreq=60 r1="2.178999900817871" x1=0.11500000208616257 units=km normamps=520.0
New "Linecode.93_4" nphases=4 basefreq=60 r1="2.178999900817871" x1=0.11500000208616257 units=km normamps=520.0

New "Linecode.94_1" nphases=1 basefreq=60 r1="2.0820000171661377" x1=0.12070000171661377 units=km normamps=520.0
New "Linecode.94_2" nphases=2 basefreq=60 r1="2.0820000171661377" x1=0.12070000171661377 units=km normamps=520.0
New "Linecode.94_3" nphases=3 basefreq=60 r1="2.0820000171661377" x1=0.12070000171661377 units=km normamps=520.0
New "Linecode.94_4" nphases=4 basefreq=60 r1="2.0820000171661377" x1=0.12070000171661377 units=km normamps=520.0

New "Linecode.95_1" nphases=1 basefreq=60 r1="2.0820000171661377" x1=0.12070000171661377 units=km normamps=520.0
New "Linecode.95_2" nphases=2 basefreq=60 r1="2.0820000171661377" x1=0.12070000171661377 units=km normamps=520.0
New "Linecode.95_3" nphases=3 basefreq=60 r1="2.0820000171661377" x1=0.12070000171661377 units=km normamps=520.0
New "Linecode.95_4" nphases=4 basefreq=60 r1="2.0820000171661377" x1=0.12070000171661377 units=km normamps=520.0

New "Linecode.96_1" nphases=1 basefreq=60 r1="0.3050000071525574" x1=0.1096000000834465 units=km normamps=520.0
New "Linecode.96_2" nphases=2 basefreq=60 r1="0.3050000071525574" x1=0.1096000000834465 units=km normamps=520.0
New "Linecode.96_3" nphases=3 basefreq=60 r1="0.3050000071525574" x1=0.1096000000834465 units=km normamps=520.0
New "Linecode.96_4" nphases=4 basefreq=60 r1="0.3050000071525574" x1=0.1096000000834465 units=km normamps=520.0

New "Linecode.99_1" nphases=1 basefreq=60 r1="3.5139999389648438" x1=0.12300000339746475 units=km normamps=520.0
New "Linecode.99_2" nphases=2 basefreq=60 r1="3.5139999389648438" x1=0.12300000339746475 units=km normamps=520.0
New "Linecode.99_3" nphases=3 basefreq=60 r1="3.5139999389648438" x1=0.12300000339746475 units=km normamps=520.0
New "Linecode.99_4" nphases=4 basefreq=60 r1="3.5139999389648438" x1=0.12300000339746475 units=km normamps=520.0

New "Linecode.100_1" nphases=1 basefreq=60 r1="1.36899995803833" x1=0.11299999803304672 units=km normamps=520.0
New "Linecode.100_2" nphases=2 basefreq=60 r1="1.36899995803833" x1=0.11299999803304672 units=km normamps=520.0
New "Linecode.100_3" nphases=3 basefreq=60 r1="1.36899995803833" x1=0.11299999803304672 units=km normamps=520.0
New "Linecode.100_4" nphases=4 basefreq=60 r1="1.36899995803833" x1=0.11299999803304672 units=km normamps=520.0

New "Linecode.101_1" nphases=1 basefreq=60 r1="0.5059999823570251" x1=0.10899999737739563 units=km normamps=520.0
New "Linecode.101_2" nphases=2 basefreq=60 r1="0.5059999823570251" x1=0.10899999737739563 units=km normamps=520.0
New "Linecode.101_3" nphases=3 basefreq=60 r1="0.5059999823570251" x1=0.10899999737739563 units=km normamps=520.0
New "Linecode.101_4" nphases=4 basefreq=60 r1="0.5059999823570251" x1=0.10899999737739563 units=km normamps=520.0

New "Linecode.102_1" nphases=1 basefreq=60 r1="3.503999948501587" x1=0.12250000238418579 units=km normamps=520.0
New "Linecode.102_2" nphases=2 basefreq=60 r1="3.503999948501587" x1=0.12250000238418579 units=km normamps=520.0
New "Linecode.102_3" nphases=3 basefreq=60 r1="3.503999948501587" x1=0.12250000238418579 units=km normamps=520.0
New "Linecode.102_4" nphases=4 basefreq=60 r1="3.503999948501587" x1=0.12250000238418579 units=km normamps=520.0

New "Linecode.103_1" nphases=1 basefreq=60 r1="0.4410000145435333" x1=0.11270000040531158 units=km normamps=520.0
New "Linecode.103_2" nphases=2 basefreq=60 r1="0.4410000145435333" x1=0.11270000040531158 units=km normamps=520.0
New "Linecode.103_3" nphases=3 basefreq=60 r1="0.4410000145435333" x1=0.11270000040531158 units=km normamps=520.0
New "Linecode.103_4" nphases=4 basefreq=60 r1="0.4410000145435333" x1=0.11270000040531158 units=km normamps=520.0

New "Linecode.104_1" nphases=1 basefreq=60 r1="3.503999948501587" x1=0.12250000238418579 units=km normamps=520.0
New "Linecode.104_2" nphases=2 basefreq=60 r1="3.503999948501587" x1=0.12250000238418579 units=km normamps=520.0
New "Linecode.104_3" nphases=3 basefreq=60 r1="3.503999948501587" x1=0.12250000238418579 units=km normamps=520.0
New "Linecode.104_4" nphases=4 basefreq=60 r1="3.503999948501587" x1=0.12250000238418579 units=km normamps=520.0

New "Linecode.105_1" nphases=1 basefreq=60 r1="0.5960000157356262" x1=0.1128000020980835 units=km normamps=520.0
New "Linecode.105_2" nphases=2 basefreq=60 r1="0.5960000157356262" x1=0.1128000020980835 units=km normamps=520.0
New "Linecode.105_3" nphases=3 basefreq=60 r1="0.5960000157356262" x1=0.1128000020980835 units=km normamps=520.0
New "Linecode.105_4" nphases=4 basefreq=60 r1="0.5960000157356262" x1=0.1128000020980835 units=km normamps=520.0

New "Linecode.106_1" nphases=1 basefreq=60 r1="3.503999948501587" x1=0.12250000238418579 units=km normamps=520.0
New "Linecode.106_2" nphases=2 basefreq=60 r1="3.503999948501587" x1=0.12250000238418579 units=km normamps=520.0
New "Linecode.106_3" nphases=3 basefreq=60 r1="3.503999948501587" x1=0.12250000238418579 units=km normamps=520.0
New "Linecode.106_4" nphases=4 basefreq=60 r1="3.503999948501587" x1=0.12250000238418579 units=km normamps=520.0

New "Linecode.107_1" nphases=1 basefreq=60 r1="0.6129999756813049" x1=0.3379000127315521 units=km normamps=520.0
New "Linecode.107_2" nphases=2 basefreq=60 r1="0.6129999756813049" x1=0.3379000127315521 units=km normamps=520.0
New "Linecode.107_3" nphases=3 basefreq=60 r1="0.6129999756813049" x1=0.3379000127315521 units=km normamps=520.0
New "Linecode.107_4" nphases=4 basefreq=60 r1="0.6129999756813049" x1=0.3379000127315521 units=km normamps=520.0

New "Linecode.110_1" nphases=1 basefreq=60 r1="0.6129999756813049" x1=0.3878999948501587 units=km normamps=520.0
New "Linecode.110_2" nphases=2 basefreq=60 r1="0.6129999756813049" x1=0.3878999948501587 units=km normamps=520.0
New "Linecode.110_3" nphases=3 basefreq=60 r1="0.6129999756813049" x1=0.3878999948501587 units=km normamps=520.0
New "Linecode.110_4" nphases=4 basefreq=60 r1="0.6129999756813049" x1=0.3878999948501587 units=km normamps=520.0

New "Linecode.111_1" nphases=1 basefreq=60 r1="0.6129999756813049" x1=0.3379000127315521 units=km normamps=520.0
New "Linecode.111_2" nphases=2 basefreq=60 r1="0.6129999756813049" x1=0.3379000127315521 units=km normamps=520.0
New "Linecode.111_3" nphases=3 basefreq=60 r1="0.6129999756813049" x1=0.3379000127315521 units=km normamps=520.0
New "Linecode.111_4" nphases=4 basefreq=60 r1="0.6129999756813049" x1=0.3379000127315521 units=km normamps=520.0

New "Linecode.112_1" nphases=1 basefreq=60 r1="0.11400000005960464" x1=0.10729999840259552 units=km normamps=520.0
New "Linecode.112_2" nphases=2 basefreq=60 r1="0.11400000005960464" x1=0.10729999840259552 units=km normamps=520.0
New "Linecode.112_3" nphases=3 basefreq=60 r1="0.11400000005960464" x1=0.10729999840259552 units=km normamps=520.0
New "Linecode.112_4" nphases=4 basefreq=60 r1="0.11400000005960464" x1=0.10729999840259552 units=km normamps=520.0

New "Linecode.113_1" nphases=1 basefreq=60 r1="0.289000004529953" x1=0.2709999978542328 units=km normamps=520.0
New "Linecode.113_2" nphases=2 basefreq=60 r1="0.289000004529953" x1=0.2709999978542328 units=km normamps=520.0
New "Linecode.113_3" nphases=3 basefreq=60 r1="0.289000004529953" x1=0.2709999978542328 units=km normamps=520.0
New "Linecode.113_4" nphases=4 basefreq=60 r1="0.289000004529953" x1=0.2709999978542328 units=km normamps=520.0

New "Linecode.114_1" nphases=1 basefreq=60 r1="0.5059999823570251" x1=0.3255000114440918 units=km normamps=520.0
New "Linecode.114_2" nphases=2 basefreq=60 r1="0.5059999823570251" x1=0.3255000114440918 units=km normamps=520.0
New "Linecode.114_3" nphases=3 basefreq=60 r1="0.5059999823570251" x1=0.3255000114440918 units=km normamps=520.0
New "Linecode.114_4" nphases=4 basefreq=60 r1="0.5059999823570251" x1=0.3255000114440918 units=km normamps=520.0

New "Linecode.115_1" nphases=1 basefreq=60 r1="0.17499999701976776" x1=0.10760000348091125 units=km normamps=520.0
New "Linecode.115_2" nphases=2 basefreq=60 r1="0.17499999701976776" x1=0.10760000348091125 units=km normamps=520.0
New "Linecode.115_3" nphases=3 basefreq=60 r1="0.17499999701976776" x1=0.10760000348091125 units=km normamps=520.0
New "Linecode.115_4" nphases=4 basefreq=60 r1="0.17499999701976776" x1=0.10760000348091125 units=km normamps=520.0

New "Linecode.116_1" nphases=1 basefreq=60 r1="1.5509999990463257" x1=0.37400001287460327 units=km normamps=520.0
New "Linecode.116_2" nphases=2 basefreq=60 r1="1.5509999990463257" x1=0.37400001287460327 units=km normamps=520.0
New "Linecode.116_3" nphases=3 basefreq=60 r1="1.5509999990463257" x1=0.37400001287460327 units=km normamps=520.0
New "Linecode.116_4" nphases=4 basefreq=60 r1="1.5509999990463257" x1=0.37400001287460327 units=km normamps=520.0

New "Linecode.117_1" nphases=1 basefreq=60 r1="0.08699999749660492" x1=0.10700000077486038 units=km normamps=520.0
New "Linecode.117_2" nphases=2 basefreq=60 r1="0.08699999749660492" x1=0.10700000077486038 units=km normamps=520.0
New "Linecode.117_3" nphases=3 basefreq=60 r1="0.08699999749660492" x1=0.10700000077486038 units=km normamps=520.0
New "Linecode.117_4" nphases=4 basefreq=60 r1="0.08699999749660492" x1=0.10700000077486038 units=km normamps=520.0

New "Linecode.118_1" nphases=1 basefreq=60 r1="0.9750000238418579" x1=0.35760000348091125 units=km normamps=520.0
New "Linecode.118_2" nphases=2 basefreq=60 r1="0.9750000238418579" x1=0.35760000348091125 units=km normamps=520.0
New "Linecode.118_3" nphases=3 basefreq=60 r1="0.9750000238418579" x1=0.35760000348091125 units=km normamps=520.0
New "Linecode.118_4" nphases=4 basefreq=60 r1="0.9750000238418579" x1=0.35760000348091125 units=km normamps=520.0

New "Linecode.119_1" nphases=1 basefreq=60 r1="0.4410000145435333" x1=0.11270000040531158 units=km normamps=520.0
New "Linecode.119_2" nphases=2 basefreq=60 r1="0.4410000145435333" x1=0.11270000040531158 units=km normamps=520.0
New "Linecode.119_3" nphases=3 basefreq=60 r1="0.4410000145435333" x1=0.11270000040531158 units=km normamps=520.0
New "Linecode.119_4" nphases=4 basefreq=60 r1="0.4410000145435333" x1=0.11270000040531158 units=km normamps=520.0

New "Linecode.120_1" nphases=1 basefreq=60 r1="2.0820000171661377" x1=0.12070000171661377 units=km normamps=520.0
New "Linecode.120_2" nphases=2 basefreq=60 r1="2.0820000171661377" x1=0.12070000171661377 units=km normamps=520.0
New "Linecode.120_3" nphases=3 basefreq=60 r1="2.0820000171661377" x1=0.12070000171661377 units=km normamps=520.0
New "Linecode.120_4" nphases=4 basefreq=60 r1="2.0820000171661377" x1=0.12070000171661377 units=km normamps=520.0

New "Linecode.121_1" nphases=1 basefreq=60 r1="0.2199999988079071" x1=0.06499999761581421 units=km normamps=520.0
New "Linecode.121_2" nphases=2 basefreq=60 r1="0.2199999988079071" x1=0.06499999761581421 units=km normamps=520.0
New "Linecode.121_3" nphases=3 basefreq=60 r1="0.2199999988079071" x1=0.06499999761581421 units=km normamps=520.0
New "Linecode.121_4" nphases=4 basefreq=60 r1="0.2199999988079071" x1=0.06499999761581421 units=km normamps=520.0

New "Linecode.122_1" nphases=1 basefreq=60 r1="0.7319999933242798" x1=0.3089999854564667 units=km normamps=520.0
New "Linecode.122_2" nphases=2 basefreq=60 r1="0.7319999933242798" x1=0.3089999854564667 units=km normamps=520.0
New "Linecode.122_3" nphases=3 basefreq=60 r1="0.7319999933242798" x1=0.3089999854564667 units=km normamps=520.0
New "Linecode.122_4" nphases=4 basefreq=60 r1="0.7319999933242798" x1=0.3089999854564667 units=km normamps=520.0

New "Linecode.123_1" nphases=1 basefreq=60 r1="2.0820000171661377" x1=0.12070000171661377 units=km normamps=520.0
New "Linecode.123_2" nphases=2 basefreq=60 r1="2.0820000171661377" x1=0.12070000171661377 units=km normamps=520.0
New "Linecode.123_3" nphases=3 basefreq=60 r1="2.0820000171661377" x1=0.12070000171661377 units=km normamps=520.0
New "Linecode.123_4" nphases=4 basefreq=60 r1="2.0820000171661377" x1=0.12070000171661377 units=km normamps=520.0

New "Linecode.124_1" nphases=1 basefreq=60 r1="0.5960000157356262" x1=0.1128000020980835 units=km normamps=520.0
New "Linecode.124_2" nphases=2 basefreq=60 r1="0.5960000157356262" x1=0.1128000020980835 units=km normamps=520.0
New "Linecode.124_3" nphases=3 basefreq=60 r1="0.5960000157356262" x1=0.1128000020980835 units=km normamps=520.0
New "Linecode.124_4" nphases=4 basefreq=60 r1="0.5960000157356262" x1=0.1128000020980835 units=km normamps=520.0

New "Linecode.125_1" nphases=1 basefreq=60 r1="2.0820000171661377" x1=0.12070000171661377 units=km normamps=520.0
New "Linecode.125_2" nphases=2 basefreq=60 r1="2.0820000171661377" x1=0.12070000171661377 units=km normamps=520.0
New "Linecode.125_3" nphases=3 basefreq=60 r1="2.0820000171661377" x1=0.12070000171661377 units=km normamps=520.0
New "Linecode.125_4" nphases=4 basefreq=60 r1="2.0820000171661377" x1=0.12070000171661377 units=km normamps=520.0

