output/1_TAP2_1/Trecho_MT_1_TAP2_1.dss
New "Line.SMT_2449" phases=3 bus1="86851.1.2.3" bus2="2371.1.2.3" linecode="70_3" length=0.04628 units=km
New "Line.SMT_2450" phases=3 bus1="2391.1.2.3" bus2="86851.1.2.3" linecode="70_3" length=0.03724 units=km
New "Line.SMT_2430" phases=3 bus1="86291.1.2.3" bus2="86301.1.2.3" linecode="114_3" length=0.03101 units=km
New "Line.SMT_2431" phases=3 bus1="86301.1.2.3" bus2="86311.1.2.3" linecode="114_3" length=0.02757 units=km
New "Line.SMT_2432" phases=3 bus1="86411.1.2.3" bus2="86321.1.2.3" linecode="114_3" length=0.01645 units=km
New "Line.SMT_2433" phases=3 bus1="24751.1.2.3" bus2="86331.1.2.3" linecode="56_3" length=0.02822 units=km
New "Line.SMT_2434" phases=3 bus1="86331.1.2.3" bus2="86411.1.2.3" linecode="114_3" length=0.01372 units=km
New "Line.SMT_2435" phases=3 bus1="86251.1.2.3" bus2="86421.1.2.3" linecode="114_3" length=0.02395 units=km
New "Line.SMT_2415" phases=3 bus1="1CS121.1.2.3" bus2="85882.1.2.3" linecode="68_3" length=0.02364 units=km
New "Line.SMT_2416" phases=3 bus1="85961.1.2.3" bus2="191.1.2.3" linecode="63_3" length=0.02741 units=km
New "Line.SMT_2417" phases=3 bus1="85961.1.2.3" bus2="16171.1.2.3" linecode="56_3" length=0.01508 units=km
New "Line.SMT_2418" phases=3 bus1="85961.1.2.3" bus2="24891.1.2.3" linecode="56_3" length=0.03194 units=km
New "Line.SMT_2419" phases=3 bus1="16161.1.2.3" bus2="85961.1.2.3" linecode="63_3" length=0.01259 units=km
New "Line.SMT_2422" phases=3 bus1="86411.1.2.3" bus2="86221.1.2.3" linecode="114_3" length=0.01804 units=km
New "Line.SMT_2423" phases=3 bus1="86411.1.2.3" bus2="86231.1.2.3" linecode="114_3" length=0.00890 units=km
New "Line.SMT_2424" phases=3 bus1="86231.1.2.3" bus2="86241.1.2.3" linecode="114_3" length=0.03784 units=km
New "Line.SMT_2425" phases=3 bus1="86241.1.2.3" bus2="86251.1.2.3" linecode="114_3" length=0.03987 units=km
New "Line.SMT_2426" phases=3 bus1="86421.1.2.3" bus2="86261.1.2.3" linecode="114_3" length=0.01537 units=km
New "Line.SMT_2427" phases=3 bus1="86421.1.2.3" bus2="86271.1.2.3" linecode="114_3" length=0.01904 units=km
New "Line.SMT_2428" phases=3 bus1="86421.1.2.3" bus2="86281.1.2.3" linecode="114_3" length=0.01823 units=km
New "Line.SMT_2429" phases=3 bus1="86281.1.2.3" bus2="86291.1.2.3" linecode="114_3" length=0.03913 units=km
New "Line.SMT_2398" phases=3 bus1="7252.1.2.3" bus2="7261.1.2.3" linecode="63_3" length=0.07100 units=km
New "Line.SMT_2399" phases=3 bus1="85452.1.2.3" bus2="81441.1.2.3" linecode="118_3" length=0.01062 units=km
New "Line.SMT_2401" phases=3 bus1="85452.1.2.3" bus2="85441.1.2.3" linecode="118_3" length=0.01286 units=km
New "Line.SMT_2402" phases=3 bus1="81601.1.2.3" bus2="85452.1.2.3" linecode="118_3" length=0.03014 units=km
New "Line.SMT_2377" phases=3 bus1="18441.1.2.3" bus2="84871.1.2.3" linecode="63_3" length=0.04598 units=km
New "Line.SMT_2378" phases=3 bus1="33521.1.2.3" bus2="85011.1.2.3" linecode="63_3" length=0.02256 units=km
New "Line.SMT_2381" phases=3 bus1="16021.1.2.3" bus2="85131.1.2.3" linecode="56_3" length=0.02926 units=km
New "Line.SMT_2382" phases=3 bus1="85131.1.2.3" bus2="85143.1.2.3" linecode="56_3" length=0.01998 units=km
New "Line.SMT_2385" phases=3 bus1="85191.1.2.3" bus2="73591.1.2.3" linecode="63_3" length=0.01655 units=km
New "Line.SMT_2386" phases=3 bus1="66151.1.2.3" bus2="85191.1.2.3" linecode="63_3" length=0.01618 units=km
New "Line.SMT_2393" phases=3 bus1="34111.1.2.3" bus2="8971.1.2.3" linecode="67_3" length=0.02653 units=km
New "Line.SMT_2394" phases=3 bus1="1CS141.1.2.3" bus2="8982.1.2.3" linecode="67_3" length=0.03900 units=km
New "Line.SMT_2395" phases=3 bus1="34111.1.2.3" bus2="20041.1.2.3" linecode="67_3" length=0.01547 units=km
New "Line.SMT_2364" phases=3 bus1="31711.1.2.3" bus2="84391.1.2.3" linecode="63_3" length=0.01745 units=km
New "Line.SMT_2367" phases=3 bus1="84451.1.2.3" bus2="14471.1.2.3" linecode="3_3" length=0.09036 units=km
New "Line.SMT_2368" phases=3 bus1="4711.1.2.3" bus2="84451.1.2.3" linecode="3_3" length=0.05900 units=km
New "Line.SMT_2370" phases=3 bus1="27801.1.2.3" bus2="29311.1.2.3" linecode="70_3" length=0.04100 units=km
New "Line.SMT_2369" phases=3 bus1="1CF152.1.2.3" bus2="84471.1.2.3" linecode="124_3" length=0.02642 units=km
New "Line.SMT_2379" phases=3 bus1="77631.1.2.3" bus2="16021.1.2.3" linecode="56_3" length=0.04170 units=km
New "Line.SMT_2372" phases=3 bus1="84871.1.2.3" bus2="84881.1.2.3" linecode="114_3" length=0.04502 units=km
New "Line.SMT_2373" phases=3 bus1="84881.1.2.3" bus2="84891.1.2.3" linecode="114_3" length=0.04240 units=km
New "Line.SMT_2374" phases=3 bus1="84891.1.2.3" bus2="84901.1.2.3" linecode="114_3" length=0.03591 units=km
New "Line.SMT_2375" phases=3 bus1="84901.1.2.3" bus2="84911.1.2.3" linecode="114_3" length=0.03426 units=km
New "Line.SMT_2376" phases=3 bus1="84911.1.2.3" bus2="84921.1.2.3" linecode="114_3" length=0.02245 units=km
New "Line.SMT_2380" phases=3 bus1="16061.1.2.3" bus2="18521.1.2.3" linecode="63_3" length=0.05000 units=km
New "Line.SMT_2351" phases=3 bus1="12181.1.2.3" bus2="84301.1.2.3" linecode="70_3" length=0.05732 units=km
New "Line.SMT_2352" phases=3 bus1="84301.1.2.3" bus2="82231.1.2.3" linecode="70_3" length=0.05667 units=km
New "Line.SMT_2353" phases=3 bus1="1CF151.1.2.3" bus2="84291.1.2.3" linecode="122_3" length=0.01480 units=km
New "Line.SMT_2354" phases=3 bus1="84291.1.2.3" bus2="84281.1.2.3" linecode="122_3" length=0.04090 units=km
New "Line.SMT_2355" phases=3 bus1="84281.1.2.3" bus2="84271.1.2.3" linecode="122_3" length=0.04978 units=km
New "Line.SMT_2356" phases=3 bus1="84271.1.2.3" bus2="84261.1.2.3" linecode="122_3" length=0.03087 units=km
New "Line.SMT_2329" phases=3 bus1="83971.1.2.3" bus2="18191.1.2.3" linecode="56_3" length=0.02200 units=km
New "Line.SMT_2330" phases=3 bus1="83971.1.2.3" bus2="18201.1.2.3" linecode="56_3" length=0.01300 units=km
New "Line.SMT_2331" phases=3 bus1="18211.1.2.3" bus2="83971.1.2.3" linecode="70_3" length=0.02206 units=km
New "Line.SMT_2332" phases=3 bus1="18191.1.2.3" bus2="83981.1.2.3" linecode="56_3" length=0.03500 units=km
New "Line.SMT_2318" phases=3 bus1="1CF148.1.2.3" bus2="83661.1.2.3" linecode="56_3" length=0.01180 units=km
New "Line.SMT_2322" phases=3 bus1="21051.1.2.3" bus2="12931.1.2.3" linecode="56_3" length=0.03900 units=km
New "Line.SMT_2323" phases=3 bus1="1CS62.1.2.3" bus2="21031.1.2.3" linecode="56_3" length=0.03600 units=km
New "Line.SMT_2324" phases=3 bus1="21031.1.2.3" bus2="21051.1.2.3" linecode="56_3" length=0.04350 units=km
New "Line.SMT_2325" phases=3 bus1="1CF149.1.2.3" bus2="83921.1.2.3" linecode="118_3" length=0.01383 units=km
New "Line.SMT_2326" phases=3 bus1="14321.1.2.3" bus2="841.1.2.3" linecode="70_3" length=0.04200 units=km
New "Line.SMT_2327" phases=3 bus1="18181.1.2.3" bus2="14651.1.2.3" linecode="70_3" length=0.04700 units=km
New "Line.SMT_2328" phases=3 bus1="83971.1.2.3" bus2="18181.1.2.3" linecode="70_3" length=0.02194 units=km
New "Line.SMT_2295" phases=3 bus1="29411.1.2.3" bus2="29401.1.2.3" linecode="114_3" length=0.04700 units=km
New "Line.SMT_2296" phases=3 bus1="29421.1.2.3" bus2="29411.1.2.3" linecode="114_3" length=0.03600 units=km
New "Line.SMT_2297" phases=3 bus1="29431.1.2.3" bus2="29421.1.2.3" linecode="114_3" length=0.04200 units=km
New "Line.SMT_2298" phases=3 bus1="29441.1.2.3" bus2="29431.1.2.3" linecode="114_3" length=0.03377 units=km
New "Line.SMT_2299" phases=3 bus1="30081.1.2.3" bus2="29441.1.2.3" linecode="114_3" length=0.04300 units=km
New "Line.SMT_2300" phases=3 bus1="33771.1.2.3" bus2="30081.1.2.3" linecode="56_3" length=0.03100 units=km
New "Line.SMT_2301" phases=3 bus1="33771.1.2.3" bus2="30111.1.2.3" linecode="56_3" length=0.02100 units=km
New "Line.SMT_2302" phases=3 bus1="21161.1.2.3" bus2="33771.1.2.3" linecode="67_3" length=0.02819 units=km
New "Line.SMT_2303" phases=3 bus1="5451.1.2.3" bus2="77531.1.2.3" linecode="63_3" length=0.03600 units=km
New "Line.SMT_2312" phases=3 bus1="82621.1.2.3" bus2="16801.1.2.3" linecode="56_3" length=0.05265 units=km
New "Line.SMT_2292" phases=3 bus1="83291.1.2.3" bus2="69401.1.2.3" linecode="56_3" length=0.04242 units=km
New "Line.SMT_2293" phases=3 bus1="33761.1.2.3" bus2="83291.1.2.3" linecode="56_3" length=0.00159 units=km
New "Line.SMT_2294" phases=3 bus1="33771.1.2.3" bus2="21151.1.2.3" linecode="67_3" length=0.01582 units=km
New "Line.SMT_2260" phases=3 bus1="16821.1.2.3" bus2="82621.1.2.3" linecode="56_3" length=0.09673 units=km
New "Line.SMT_2255" phases=3 bus1="21911.1.2.3" bus2="21931.1.2.3" linecode="70_3" length=0.03900 units=km
New "Line.SMT_2233" phases=3 bus1="1CS17.1.2.3" bus2="16111.1.2.3" linecode="63_3" length=0.04400 units=km
New "Line.SMT_2234" phases=3 bus1="27931.1.2.3" bus2="81971.1.2.3" linecode="56_3" length=0.04000 units=km
New "Line.SMT_2235" phases=3 bus1="81971.1.2.3" bus2="81981.1.2.3" linecode="56_3" length=0.04000 units=km
New "Line.SMT_2191" phases=3 bus1="81721.1.2.3" bus2="81581.1.2.3" linecode="118_3" length=0.01549 units=km
New "Line.SMT_2197" phases=3 bus1="82231.1.2.3" bus2="82221.1.2.3" linecode="70_3" length=0.05200 units=km
New "Line.SMT_2198" phases=3 bus1="1CS47.1.2.3" bus2="82211.1.2.3" linecode="70_3" length=0.04000 units=km
New "Line.SMT_2200" phases=3 bus1="82201.1.2.3" bus2="82191.1.2.3" linecode="113_3" length=0.04100 units=km
New "Line.SMT_2201" phases=3 bus1="82191.1.2.3" bus2="82181.1.2.3" linecode="113_3" length=0.04100 units=km
New "Line.SMT_2199" phases=3 bus1="82211.1.2.3" bus2="82201.1.2.3" linecode="113_3" length=0.04100 units=km
New "Line.SMT_2202" phases=3 bus1="82181.1.2.3" bus2="82171.1.2.3" linecode="113_3" length=0.04100 units=km
New "Line.SMT_2203" phases=3 bus1="82171.1.2.3" bus2="82161.1.2.3" linecode="113_3" length=0.04100 units=km
New "Line.SMT_2204" phases=3 bus1="82161.1.2.3" bus2="82151.1.2.3" linecode="113_3" length=0.04100 units=km
New "Line.SMT_2205" phases=3 bus1="82151.1.2.3" bus2="82141.1.2.3" linecode="113_3" length=0.04100 units=km
New "Line.SMT_2206" phases=3 bus1="82141.1.2.3" bus2="82131.1.2.3" linecode="113_3" length=0.04100 units=km
New "Line.SMT_2207" phases=3 bus1="RT4711.1.2.3" bus2="4711.1.2.3" linecode="3_3" length=0.00680 units=km
New "Line.SMT_2174" phases=3 bus1="68891.1.2.3" bus2="81701.1.2.3" linecode="63_3" length=0.02500 units=km
New "Line.SMT_2175" phases=3 bus1="81701.1.2.3" bus2="81461.1.2.3" linecode="118_3" length=0.03000 units=km
New "Line.SMT_2176" phases=3 bus1="81461.1.2.3" bus2="81651.1.2.3" linecode="118_3" length=0.02200 units=km
New "Line.SMT_2177" phases=3 bus1="81651.1.2.3" bus2="81641.1.2.3" linecode="118_3" length=0.02500 units=km
New "Line.SMT_2178" phases=3 bus1="81641.1.2.3" bus2="81631.1.2.3" linecode="118_3" length=0.03300 units=km
New "Line.SMT_2179" phases=3 bus1="81631.1.2.3" bus2="81621.1.2.3" linecode="118_3" length=0.03850 units=km
New "Line.SMT_2180" phases=3 bus1="81621.1.2.3" bus2="81611.1.2.3" linecode="118_3" length=0.03500 units=km
New "Line.SMT_2181" phases=3 bus1="81611.1.2.3" bus2="81601.1.2.3" linecode="118_3" length=0.03600 units=km
New "Line.SMT_2185" phases=3 bus1="85452.1.2.3" bus2="81431.1.2.3" linecode="118_3" length=0.00588 units=km
New "Line.SMT_2186" phases=3 bus1="81431.1.2.3" bus2="81551.1.2.3" linecode="118_3" length=0.03000 units=km
New "Line.SMT_2187" phases=3 bus1="81551.1.2.3" bus2="81541.1.2.3" linecode="118_3" length=0.02950 units=km
New "Line.SMT_2188" phases=3 bus1="81541.1.2.3" bus2="81721.1.2.3" linecode="118_3" length=0.00262 units=km
New "Line.SMT_2189" phases=3 bus1="81721.1.2.3" bus2="81531.1.2.3" linecode="118_3" length=0.02588 units=km
New "Line.SMT_2190" phases=3 bus1="81721.1.2.3" bus2="81571.1.2.3" linecode="118_3" length=0.02551 units=km
New "Line.SMT_2159" phases=3 bus1="1CF135.1.2.3" bus2="81081.1.2.3" linecode="56_3" length=0.02350 units=km
New "Line.SMT_2141" phases=3 bus1="24691.1.2.3" bus2="72591.1.2.3" linecode="114_3" length=0.04550 units=km
New "Line.SMT_2142" phases=3 bus1="72591.1.2.3" bus2="72601.1.2.3" linecode="114_3" length=0.04550 units=km
New "Line.SMT_2143" phases=3 bus1="72601.1.2.3" bus2="80451.1.2.3" linecode="114_3" length=0.03750 units=km
New "Line.SMT_2144" phases=3 bus1="80451.1.2.3" bus2="80301.1.2.3" linecode="114_3" length=0.03800 units=km
New "Line.SMT_2145" phases=3 bus1="23601.1.2.3" bus2="23611.1.2.3" linecode="70_3" length=0.03300 units=km
New "Line.SMT_2146" phases=3 bus1="1CS45.1.2.3" bus2="23601.1.2.3" linecode="70_3" length=0.04500 units=km
New "Line.SMT_2088" phases=3 bus1="77661.1.2.3" bus2="77721.1.2.3" linecode="67_3" length=0.02944 units=km
New "Line.SMT_2085" phases=3 bus1="78101.1.2.3" bus2="2611.1.2.3" linecode="67_3" length=0.02000 units=km
New "Line.SMT_2086" phases=3 bus1="78101.1.2.3" bus2="77731.1.2.3" linecode="67_3" length=0.01138 units=km
New "Line.SMT_2087" phases=3 bus1="77721.1.2.3" bus2="78101.1.2.3" linecode="67_3" length=0.02369 units=km
New "Line.SMT_2089" phases=3 bus1="541.1.2.3" bus2="77661.1.2.3" linecode="67_3" length=0.04300 units=km
New "Line.SMT_2090" phases=3 bus1="77671.1.2.3" bus2="541.1.2.3" linecode="67_3" length=0.03531 units=km
New "Line.SMT_2091" phases=3 bus1="77681.1.2.3" bus2="77671.1.2.3" linecode="67_3" length=0.03500 units=km
New "Line.SMT_2092" phases=3 bus1="1CS123.1.2.3" bus2="77681.1.2.3" linecode="67_3" length=0.04800 units=km
New "Line.SMT_2065" phases=3 bus1="5501.1.2.3" bus2="77621.1.2.3" linecode="63_3" length=0.03800 units=km
New "Line.SMT_2064" phases=3 bus1="77192.1.2.3" bus2="73801.1.2.3" linecode="56_3" length=0.02700 units=km
New "Line.SMT_2066" phases=3 bus1="77621.1.2.3" bus2="77631.1.2.3" linecode="63_3" length=0.03800 units=km
New "Line.SMT_2068" phases=3 bus1="77711.1.2.3" bus2="23941.1.2.3" linecode="56_3" length=0.01143 units=km
New "Line.SMT_2069" phases=3 bus1="77711.1.2.3" bus2="19901.1.2.3" linecode="56_3" length=0.01686 units=km
New "Line.SMT_2070" phases=3 bus1="77711.1.2.3" bus2="23901.1.2.3" linecode="56_3" length=0.03664 units=km
New "Line.SMT_2071" phases=3 bus1="23901.1.2.3" bus2="23911.1.2.3" linecode="56_3" length=0.03296 units=km
New "Line.SMT_2072" phases=3 bus1="23911.1.2.3" bus2="71481.1.2.3" linecode="56_3" length=0.03358 units=km
New "Line.SMT_2073" phases=3 bus1="71481.1.2.3" bus2="29721.1.2.3" linecode="56_3" length=0.03593 units=km
New "Line.SMT_2074" phases=3 bus1="29721.1.2.3" bus2="77641.1.2.3" linecode="56_3" length=0.04000 units=km
New "Line.SMT_2049" phases=3 bus1="351.1.2.3" bus2="362.1.2.3" linecode="67_3" length=0.04200 units=km
New "Line.SMT_2050" phases=3 bus1="11781.1.2.3" bus2="351.1.2.3" linecode="67_3" length=0.04200 units=km
New "Line.SMT_2051" phases=3 bus1="64682.1.2.3" bus2="11781.1.2.3" linecode="67_3" length=0.01341 units=km
New "Line.SMT_2052" phases=3 bus1="2891.1.2.3" bus2="64682.1.2.3" linecode="67_3" length=0.03114 units=km
New "Line.SMT_2053" phases=3 bus1="3551.1.2.3" bus2="2891.1.2.3" linecode="67_3" length=0.04600 units=km
New "Line.SMT_2054" phases=3 bus1="3561.1.2.3" bus2="3551.1.2.3" linecode="67_3" length=0.04000 units=km
New "Line.SMT_2055" phases=3 bus1="3571.1.2.3" bus2="3561.1.2.3" linecode="67_3" length=0.04000 units=km
New "Line.SMT_2056" phases=3 bus1="3581.1.2.3" bus2="3571.1.2.3" linecode="67_3" length=0.04800 units=km
New "Line.SMT_2057" phases=3 bus1="4181.1.2.3" bus2="3581.1.2.3" linecode="67_3" length=0.04300 units=km
New "Line.SMT_2058" phases=3 bus1="1CS58.1.2.3" bus2="4181.1.2.3" linecode="67_3" length=0.03507 units=km
New "Line.SMT_2059" phases=3 bus1="24701.1.2.3" bus2="76981.1.2.3" linecode="63_3" length=0.03821 units=km
New "Line.SMT_2060" phases=3 bus1="74411.1.2.3" bus2="74371.1.2.3" linecode="56_3" length=0.03800 units=km
New "Line.SMT_2061" phases=3 bus1="74371.1.2.3" bus2="74361.1.2.3" linecode="56_3" length=0.03800 units=km
New "Line.SMT_2062" phases=3 bus1="74361.1.2.3" bus2="77192.1.2.3" linecode="56_3" length=0.03700 units=km
New "Line.SMT_2063" phases=3 bus1="77192.1.2.3" bus2="74381.1.2.3" linecode="56_3" length=0.03500 units=km
New "Line.SMT_2028" phases=3 bus1="11711.1.2.3" bus2="11721.1.2.3" linecode="63_3" length=0.04500 units=km
New "Line.SMT_2029" phases=3 bus1="11721.1.2.3" bus2="11731.1.2.3" linecode="63_3" length=0.04498 units=km
New "Line.SMT_2030" phases=3 bus1="11731.1.2.3" bus2="11761.1.2.3" linecode="63_3" length=0.04000 units=km
New "Line.SMT_2031" phases=3 bus1="11761.1.2.3" bus2="11772.1.2.3" linecode="63_3" length=0.04300 units=km
New "Line.SMT_2032" phases=3 bus1="1CS92.1.2.3" bus2="11771.1.2.3" linecode="63_3" length=0.02600 units=km
New "Line.SMT_2033" phases=3 bus1="34182.1.2.3" bus2="12131.1.2.3" linecode="63_3" length=0.02188 units=km
New "Line.SMT_2034" phases=3 bus1="34182.1.2.3" bus2="9401.1.2.3" linecode="63_3" length=0.02235 units=km
New "Line.SMT_2035" phases=3 bus1="9401.1.2.3" bus2="9421.1.2.3" linecode="63_3" length=0.03700 units=km
New "Line.SMT_2010" phases=3 bus1="23951.1.2.3" bus2="77711.1.2.3" linecode="56_3" length=0.02478 units=km
New "Line.SMT_2011" phases=3 bus1="23941.1.2.3" bus2="23971.1.2.3" linecode="56_3" length=0.04000 units=km
New "Line.SMT_2012" phases=3 bus1="1CS81.1.2.3" bus2="9021.1.2.3" linecode="63_3" length=0.03600 units=km
New "Line.SMT_2013" phases=3 bus1="33862.1.2.3" bus2="9032.1.2.3" linecode="63_3" length=0.00448 units=km
New "Line.SMT_2014" phases=3 bus1="33862.1.2.3" bus2="7182.1.2.3" linecode="63_3" length=0.04071 units=km
New "Line.SMT_2017" phases=3 bus1="7161.1.2.3" bus2="7151.1.2.3" linecode="63_3" length=0.04300 units=km
New "Line.SMT_2015" phases=3 bus1="7182.1.2.3" bus2="7171.1.2.3" linecode="63_3" length=0.04000 units=km
New "Line.SMT_2016" phases=3 bus1="1CF27.1.2.3" bus2="7161.1.2.3" linecode="63_3" length=0.03800 units=km
New "Line.SMT_2018" phases=3 bus1="7151.1.2.3" bus2="14041.1.2.3" linecode="63_3" length=0.03900 units=km
New "Line.SMT_2019" phases=3 bus1="14041.1.2.3" bus2="14051.1.2.3" linecode="63_3" length=0.03500 units=km
New "Line.SMT_2022" phases=3 bus1="14061.1.2.3" bus2="14071.1.2.3" linecode="63_3" length=0.04250 units=km
New "Line.SMT_2020" phases=3 bus1="14051.1.2.3" bus2="33832.1.2.3" linecode="63_3" length=0.01432 units=km
New "Line.SMT_2021" phases=3 bus1="33832.1.2.3" bus2="14061.1.2.3" linecode="63_3" length=0.03269 units=km
New "Line.SMT_2023" phases=3 bus1="14071.1.2.3" bus2="14081.1.2.3" linecode="63_3" length=0.04000 units=km
New "Line.SMT_2024" phases=3 bus1="14081.1.2.3" bus2="17491.1.2.3" linecode="63_3" length=0.03900 units=km
New "Line.SMT_2025" phases=3 bus1="17491.1.2.3" bus2="17501.1.2.3" linecode="63_3" length=0.04200 units=km
New "Line.SMT_2026" phases=3 bus1="17501.1.2.3" bus2="17511.1.2.3" linecode="63_3" length=0.03800 units=km
New "Line.SMT_2027" phases=3 bus1="17511.1.2.3" bus2="11711.1.2.3" linecode="63_3" length=0.03000 units=km
New "Line.SMT_1992" phases=3 bus1="76811.1.2.3" bus2="76441.1.2.3" linecode="56_3" length=0.02961 units=km
New "Line.SMT_1993" phases=3 bus1="76441.1.2.3" bus2="76431.1.2.3" linecode="56_3" length=0.03000 units=km
New "Line.SMT_1994" phases=3 bus1="76431.1.2.3" bus2="76421.1.2.3" linecode="56_3" length=0.03450 units=km
New "Line.SMT_1995" phases=3 bus1="76421.1.2.3" bus2="76411.1.2.3" linecode="56_3" length=0.02400 units=km
New "Line.SMT_1996" phases=3 bus1="76411.1.2.3" bus2="76401.1.2.3" linecode="56_3" length=0.03000 units=km
New "Line.SMT_1997" phases=3 bus1="76401.1.2.3" bus2="76391.1.2.3" linecode="56_3" length=0.02400 units=km
New "Line.SMT_1998" phases=3 bus1="76391.1.2.3" bus2="76381.1.2.3" linecode="56_3" length=0.03000 units=km
New "Line.SMT_1999" phases=3 bus1="76381.1.2.3" bus2="76371.1.2.3" linecode="56_3" length=0.02400 units=km
New "Line.SMT_2000" phases=3 bus1="76371.1.2.3" bus2="76821.1.2.3" linecode="56_3" length=0.00562 units=km
New "Line.SMT_2001" phases=3 bus1="76821.1.2.3" bus2="74411.1.2.3" linecode="56_3" length=0.02721 units=km
New "Line.SMT_2002" phases=3 bus1="76821.1.2.3" bus2="76491.1.2.3" linecode="56_3" length=0.01650 units=km
New "Line.SMT_2003" phases=3 bus1="76821.1.2.3" bus2="76481.1.2.3" linecode="56_3" length=0.02250 units=km
New "Line.SMT_2004" phases=3 bus1="76481.1.2.3" bus2="76461.1.2.3" linecode="56_3" length=0.02800 units=km
New "Line.SMT_2005" phases=3 bus1="76461.1.2.3" bus2="76471.1.2.3" linecode="56_3" length=0.04000 units=km
New "Line.SMT_2006" phases=3 bus1="76471.1.2.3" bus2="76501.1.2.3" linecode="56_3" length=0.03500 units=km
New "Line.SMT_2007" phases=3 bus1="76501.1.2.3" bus2="7252.1.2.3" linecode="63_3" length=0.08200 units=km
New "Line.SMT_2009" phases=3 bus1="18491.1.2.3" bus2="23951.1.2.3" linecode="56_3" length=0.03219 units=km
New "Line.SMT_1974" phases=3 bus1="76281.1.2.3" bus2="30311.1.2.3" linecode="63_3" length=0.01123 units=km
New "Line.SMT_1975" phases=3 bus1="76281.1.2.3" bus2="75471.1.2.3" linecode="67_3" length=0.01732 units=km
New "Line.SMT_1978" phases=3 bus1="75451.1.2.3" bus2="75441.1.2.3" linecode="67_3" length=0.03450 units=km
New "Line.SMT_1976" phases=3 bus1="76281.1.2.3" bus2="75461.1.2.3" linecode="67_3" length=0.02468 units=km
New "Line.SMT_1977" phases=3 bus1="75461.1.2.3" bus2="75451.1.2.3" linecode="67_3" length=0.04000 units=km
New "Line.SMT_1979" phases=3 bus1="75441.1.2.3" bus2="75431.1.2.3" linecode="67_3" length=0.04200 units=km
New "Line.SMT_1980" phases=3 bus1="75431.1.2.3" bus2="75421.1.2.3" linecode="67_3" length=0.04150 units=km
New "Line.SMT_1981" phases=3 bus1="75421.1.2.3" bus2="12912.1.2.3" linecode="67_3" length=0.03200 units=km
New "Line.SMT_1987" phases=3 bus1="76781.1.2.3" bus2="76791.1.2.3" linecode="63_3" length=0.03700 units=km
...
