output/1_TAP2_1/Trecho_BT_1_TAP2_1.dss
New "Line.SBT_5466" phases=3 bus1="BT17342.1.2.3.4" bus2="BT73301.1.2.3.4" linecode="85_4" length=0.02501 units=km
New "Line.SBT_5470" phases=1 bus1="BT26131.3.4" bus2="BT3781.3.4" linecode="92_2" length=0.02949 units=km
New "Line.SBT_5442" phases=3 bus1="BT5191.1.2.3.4" bus2="BT32011.1.2.3.4" linecode="101_4" length=0.01700 units=km
New "Line.SBT_5443" phases=3 bus1="BT11581.1.2.3.4" bus2="BT16261.1.2.3.4" linecode="101_4" length=0.03537 units=km
New "Line.SBT_5444" phases=3 bus1="BT12621.1.2.3.4" bus2="BT15261.1.2.3.4" linecode="101_4" length=0.03450 units=km
New "Line.SBT_5445" phases=3 bus1="BT15261.1.2.3.4" bus2="BT31291.1.2.3.4" linecode="101_4" length=0.00963 units=km
New "Line.SBT_5446" phases=3 bus1="BT16251.1.2.3.4" bus2="BT31291.1.2.3.4" linecode="101_4" length=0.02447 units=km
New "Line.SBT_5447" phases=3 bus1="BT16261.1.2.3.4" bus2="BT16251.1.2.3.4" linecode="101_4" length=0.03000 units=km
New "Line.SBT_5448" phases=3 bus1="BT32011.1.2.3.4" bus2="BT12621.1.2.3.4" linecode="101_4" length=0.01772 units=km
New "Line.SBT_5449" phases=3 bus1="BT86901.1.2.3.4" bus2="BT16261.1.2.3.4" linecode="85_4" length=0.01628 units=km
New "Line.SBT_5450" phases=3 bus1="BT86911.1.2.3.4" bus2="BT86901.1.2.3.4" linecode="85_4" length=0.03626 units=km
New "Line.SBT_5414" phases=3 bus1="BT86811.1.2.3.4" bus2="BT86801.1.2.3.4" linecode="101_4" length=0.04500 units=km
New "Line.SBT_5415" phases=3 bus1="BT86821.1.2.3.4" bus2="BT86811.1.2.3.4" linecode="101_4" length=0.04100 units=km
New "Line.SBT_5416" phases=3 bus1="BT86831.1.2.3.4" bus2="BT86821.1.2.3.4" linecode="101_4" length=0.04250 units=km
New "Line.SBT_5417" phases=3 bus1="BT86841.1.2.3.4" bus2="BT86831.1.2.3.4" linecode="101_4" length=0.04050 units=km
New "Line.SBT_5418" phases=3 bus1="BT24871.1.2.3.4" bus2="BT24861.1.2.3.4" linecode="101_4" length=0.03700 units=km
New "Line.SBT_5419" phases=3 bus1="BT2361.1.2.3.4" bus2="BT2372.1.2.3.4" linecode="101_4" length=0.03800 units=km
New "Line.SBT_5420" phases=3 bus1="BT2372.1.2.3.4" bus2="ET1_165.1.2.3.4" linecode="101_4" length=0.04175 units=km
New "Line.SBT_5421" phases=3 bus1="BT2391.1.2.3.4" bus2="ET1_165.1.2.3.4" linecode="101_4" length=0.03724 units=km
New "Line.SBT_5427" phases=3 bus1="BT5181.1.2.3.4" bus2="BT31771.1.2.3.4" linecode="101_4" length=0.01800 units=km
New "Line.SBT_5428" phases=3 bus1="BT6501.1.2.3.4" bus2="BT6511.1.2.3.4" linecode="101_4" length=0.04100 units=km
New "Line.SBT_5429" phases=3 bus1="BT6511.1.2.3.4" bus2="BT6521.1.2.3.4" linecode="101_4" length=0.04066 units=km
New "Line.SBT_5430" phases=3 bus1="BT6521.1.2.3.4" bus2="BT31771.1.2.3.4" linecode="101_4" length=0.02022 units=km
New "Line.SBT_5431" phases=3 bus1="BT72441.1.2.3.4" bus2="BT6501.1.2.3.4" linecode="101_4" length=0.01600 units=km
New "Line.SBT_5432" phases=3 bus1="BT86861.1.2.3.4" bus2="BT72441.1.2.3.4" linecode="101_4" length=0.01477 units=km
New "Line.SBT_5411" phases=3 bus1="BT86781.1.2.3.4" bus2="ET1_175.1.2.3.4" linecode="101_4" length=0.04295 units=km
New "Line.SBT_5412" phases=3 bus1="BT86791.1.2.3.4" bus2="BT86781.1.2.3.4" linecode="101_4" length=0.03770 units=km
New "Line.SBT_5413" phases=3 bus1="BT86801.1.2.3.4" bus2="BT86791.1.2.3.4" linecode="101_4" length=0.04230 units=km
New "Line.SBT_5357" phases=3 bus1="BT86361.1.2.3.4" bus2="BT86271.1.2.3.4" linecode="101_4" length=0.03553 units=km
New "Line.SBT_5358" phases=3 bus1="BT86371.1.2.3.4" bus2="BT86441.1.2.3.4" linecode="101_4" length=0.00812 units=km
New "Line.SBT_5359" phases=3 bus1="BT86381.1.2.3.4" bus2="BT86371.1.2.3.4" linecode="101_4" length=0.03069 units=km
New "Line.SBT_5360" phases=3 bus1="BT86391.1.2.3.4" bus2="BT86381.1.2.3.4" linecode="101_4" length=0.03068 units=km
New "Line.SBT_5361" phases=3 bus1="BT86431.1.2.3.4" bus2="BT86281.1.2.3.4" linecode="101_4" length=0.01514 units=km
New "Line.SBT_5362" phases=3 bus1="BT86441.1.2.3.4" bus2="BT86311.1.2.3.4" linecode="101_4" length=0.01897 units=km
New "Line.SBT_5366" phases=3 bus1="BT86401.1.2.3.4" bus2="BT86391.1.2.3.4" linecode="101_4" length=0.03717 units=km
New "Line.SBT_5367" phases=3 bus1="BT24782.1.2.3.4" bus2="BT86321.1.2.3.4" linecode="44_4" length=0.02680 units=km
New "Line.SBT_5368" phases=3 bus1="BT24791.1.2.3.4" bus2="BT24782.1.2.3.4" linecode="44_4" length=0.03600 units=km
New "Line.SBT_5342" phases=3 bus1="BT85912.1.2.3.4" bus2="BT86361.1.2.3.4" linecode="101_4" length=0.03449 units=km
New "Line.SBT_5344" phases=3 bus1="BT86231.1.2.3.4" bus2="BT86241.1.2.3.4" linecode="101_4" length=0.03784 units=km
New "Line.SBT_5345" phases=3 bus1="BT86241.1.2.3.4" bus2="BT86251.1.2.3.4" linecode="101_4" length=0.03987 units=km
New "Line.SBT_5346" phases=3 bus1="BT86251.1.2.3.4" bus2="BT86431.1.2.3.4" linecode="101_4" length=0.02796 units=km
New "Line.SBT_5347" phases=3 bus1="BT86261.1.2.3.4" bus2="BT86431.1.2.3.4" linecode="101_4" length=0.01361 units=km
New "Line.SBT_5348" phases=3 bus1="BT86271.1.2.3.4" bus2="BT86431.1.2.3.4" linecode="101_4" length=0.02036 units=km
New "Line.SBT_5349" phases=3 bus1="BT86281.1.2.3.4" bus2="BT86291.1.2.3.4" linecode="101_4" length=0.03913 units=km
New "Line.SBT_5350" phases=3 bus1="BT86291.1.2.3.4" bus2="ET1_214.1.2.3.4" linecode="101_4" length=0.03101 units=km
New "Line.SBT_5352" phases=3 bus1="BT86311.1.2.3.4" bus2="ET1_214.1.2.3.4" linecode="101_4" length=0.02757 units=km
New "Line.SBT_5353" phases=3 bus1="BT86321.1.2.3.4" bus2="BT86331.1.2.3.4" linecode="101_4" length=0.03117 units=km
New "Line.SBT_5354" phases=3 bus1="BT86331.1.2.3.4" bus2="ET1_10.1.2.3.4" linecode="44_4" length=0.02722 units=km
New "Line.SBT_5355" phases=3 bus1="BT86341.1.2.3.4" bus2="BT86441.1.2.3.4" linecode="101_4" length=0.01763 units=km
New "Line.SBT_5356" phases=3 bus1="BT86351.1.2.3.4" bus2="BT86441.1.2.3.4" linecode="101_4" length=0.01637 units=km
New "Line.SBT_5316" phases=3 bus1="BT191.1.2.3.4" bus2="BT32941.1.2.3.4" linecode="44_4" length=0.02515 units=km
New "Line.SBT_5317" phases=3 bus1="BT202.1.2.3.4" bus2="BT191.1.2.3.4" linecode="44_4" length=0.04000 units=km
New "Line.SBT_5318" phases=3 bus1="BT9262.1.2.3.4" bus2="BT12291.1.2.3.4" linecode="74_4" length=0.03100 units=km
New "Line.SBT_5319" phases=3 bus1="BT10531.1.2.3.4" bus2="BT33381.1.2.3.4" linecode="74_4" length=0.02514 units=km
New "Line.SBT_5320" phases=3 bus1="BT12291.1.2.3.4" bus2="BT14481.1.2.3.4" linecode="74_4" length=0.04700 units=km
New "Line.SBT_5321" phases=3 bus1="BT14481.1.2.3.4" bus2="BT33381.1.2.3.4" linecode="74_4" length=0.01694 units=km
New "Line.SBT_5322" phases=3 bus1="BT16151.1.2.3.4" bus2="BT16161.1.2.3.4" linecode="44_4" length=0.03800 units=km
New "Line.SBT_5323" phases=3 bus1="BT16161.1.2.3.4" bus2="BT32941.1.2.3.4" linecode="44_4" length=0.01485 units=km
New "Line.SBT_5324" phases=3 bus1="BT16171.1.2.3.4" bus2="BT32941.1.2.3.4" linecode="101_4" length=0.01491 units=km
New "Line.SBT_5325" phases=3 bus1="BT16182.1.2.3.4" bus2="BT71.1.2.3.4" linecode="44_4" length=0.04295 units=km
New "Line.SBT_5326" phases=3 bus1="BT20001.1.2.3.4" bus2="BT20011.1.2.3.4" linecode="101_4" length=0.04000 units=km
New "Line.SBT_5327" phases=3 bus1="BT20011.1.2.3.4" bus2="BT33381.1.2.3.4" linecode="101_4" length=0.01500 units=km
New "Line.SBT_5328" phases=3 bus1="BT20021.1.2.3.4" bus2="BT24041.1.2.3.4" linecode="101_4" length=0.03900 units=km
New "Line.SBT_5329" phases=3 bus1="BT24041.1.2.3.4" bus2="ET1_213.1.2.3.4" linecode="101_4" length=0.04100 units=km
New "Line.SBT_5331" phases=3 bus1="BT32941.1.2.3.4" bus2="ET1_213.1.2.3.4" linecode="101_4" length=0.03320 units=km
New "Line.SBT_5332" phases=3 bus1="BT33381.1.2.3.4" bus2="BT20021.1.2.3.4" linecode="101_4" length=0.02300 units=km
New "Line.SBT_5333" phases=3 bus1="BT81771.1.2.3.4" bus2="ET1_213.1.2.3.4" linecode="101_4" length=0.01350 units=km
New "Line.SBT_5300" phases=3 bus1="BT85891.1.2.3.4" bus2="BT75841.1.2.3.4" linecode="101_4" length=0.01388 units=km
New "Line.SBT_5303" phases=3 bus1="BT6961.1.2.3.4" bus2="BT18773.1.2.3.4" linecode="44_4" length=0.03600 units=km
New "Line.SBT_5304" phases=3 bus1="BT7001.1.2.3.4" bus2="BT33561.1.2.3.4" linecode="101_4" length=0.01900 units=km
New "Line.SBT_5305" phases=3 bus1="BT9921.1.2.3.4" bus2="BT33561.1.2.3.4" linecode="101_4" length=0.02300 units=km
New "Line.SBT_5306" phases=3 bus1="BT9932.1.2.3.4" bus2="BT9921.1.2.3.4" linecode="101_4" length=0.04000 units=km
New "Line.SBT_5307" phases=3 bus1="BT18773.1.2.3.4" bus2="BT32651.1.2.3.4" linecode="101_4" length=0.02955 units=km
New "Line.SBT_5308" phases=3 bus1="BT33561.1.2.3.4" bus2="BT6961.1.2.3.4" linecode="44_4" length=0.01700 units=km
New "Line.SBT_5309" phases=3 bus1="BT85911.1.2.3.4" bus2="BT33561.1.2.3.4" linecode="44_4" length=0.01682 units=km
New "Line.SBT_5256" phases=3 bus1="BT81551.1.2.3.4" bus2="BT81432.1.2.3.4" linecode="101_4" length=0.03000 units=km
New "Line.SBT_5257" phases=3 bus1="BT85441.1.2.3.4" bus2="BT85461.1.2.3.4" linecode="101_4" length=0.01213 units=km
New "Line.SBT_5258" phases=3 bus1="BT85461.1.2.3.4" bus2="BT81601.1.2.3.4" linecode="101_4" length=0.03387 units=km
New "Line.SBT_5240" phases=3 bus1="BT85381.1.2.3.4" bus2="BT79261.1.2.3.4" linecode="85_4" length=0.02420 units=km
New "Line.SBT_5241" phases=3 bus1="BT85391.1.2.3.4" bus2="BT85381.1.2.3.4" linecode="85_4" length=0.03250 units=km
New "Line.SBT_5254" phases=3 bus1="BT81432.1.2.3.4" bus2="BT85461.1.2.3.4" linecode="101_4" length=0.00734 units=km
New "Line.SBT_5255" phases=3 bus1="BT81442.1.2.3.4" bus2="BT85461.1.2.3.4" linecode="101_4" length=0.01157 units=km
New "Line.SBT_5217" phases=1 bus1="BT85341.3.4" bus2="BT76361.3.4" linecode="92_2" length=0.04027 units=km
New "Line.SBT_5218" phases=1 bus1="BT85351.3.4" bus2="BT66381.3.4" linecode="92_2" length=0.03055 units=km
New "Line.SBT_5222" phases=3 bus1="BT17561.1.2.3.4" bus2="BT17581.1.2.3.4" linecode="85_4" length=0.03406 units=km
New "Line.SBT_5223" phases=3 bus1="BT17581.1.2.3.4" bus2="BT17591.1.2.3.4" linecode="85_4" length=0.03994 units=km
New "Line.SBT_5224" phases=3 bus1="BT17591.1.2.3.4" bus2="BT11682.1.2.3.4" linecode="85_4" length=0.00600 units=km
New "Line.SBT_5191" phases=3 bus1="BT5262.1.2.3.4" bus2="BT85271.1.2.3.4" linecode="101_4" length=0.02878 units=km
New "Line.SBT_5192" phases=3 bus1="BT85251.1.2.3.4" bus2="BT69211.1.2.3.4" linecode="101_4" length=0.02358 units=km
New "Line.SBT_5193" phases=3 bus1="BT85261.1.2.3.4" bus2="BT85251.1.2.3.4" linecode="101_4" length=0.03386 units=km
New "Line.SBT_5194" phases=3 bus1="BT85271.1.2.3.4" bus2="BT85261.1.2.3.4" linecode="101_4" length=0.02884 units=km
New "Line.SBT_5195" phases=3 bus1="BT85281.1.2.3.4" bus2="BT5262.1.2.3.4" linecode="101_4" length=0.04479 units=km
New "Line.SBT_5159" phases=3 bus1="BT30491.1.2.3.4" bus2="BT33461.1.2.3.4" linecode="101_4" length=0.01100 units=km
New "Line.SBT_5160" phases=3 bus1="BT32641.1.2.3.4" bus2="BT7671.1.2.3.4" linecode="74_4" length=0.02350 units=km
New "Line.SBT_5161" phases=3 bus1="BT33312.1.2.3.4" bus2="ET1_124.1.2.3.4" linecode="101_4" length=0.04000 units=km
New "Line.SBT_5162" phases=3 bus1="BT33461.1.2.3.4" bus2="BT15941.1.2.3.4" linecode="101_4" length=0.02771 units=km
New "Line.SBT_5163" phases=3 bus1="BT68492.1.2.3.4" bus2="BT12471.1.2.3.4" linecode="74_4" length=0.02546 units=km
New "Line.SBT_5171" phases=3 bus1="BT73961.1.2.3.4" bus2="BT85191.1.2.3.4" linecode="101_4" length=0.00930 units=km
New "Line.SBT_5172" phases=3 bus1="BT85191.1.2.3.4" bus2="ET1_131.1.2.3.4" linecode="101_4" length=0.01718 units=km
New "Line.SBT_5173" phases=3 bus1="BT26311.1.2.3.4" bus2="BT85221.1.2.3.4" linecode="101_4" length=0.02326 units=km
New "Line.SBT_5174" phases=3 bus1="BT85201.1.2.3.4" bus2="BT85221.1.2.3.4" linecode="85_4" length=0.00600 units=km
New "Line.SBT_5175" phases=3 bus1="BT85211.1.2.3.4" bus2="BT85221.1.2.3.4" linecode="85_4" length=0.03900 units=km
New "Line.SBT_5176" phases=3 bus1="BT85221.1.2.3.4" bus2="BT26301.1.2.3.4" linecode="101_4" length=0.02483 units=km
New "Line.SBT_5139" phases=3 bus1="BT281.1.2.3.4" bus2="BT32641.1.2.3.4" linecode="74_4" length=0.02932 units=km
New "Line.SBT_5140" phases=3 bus1="BT291.1.2.3.4" bus2="BT32641.1.2.3.4" linecode="74_4" length=0.01450 units=km
New "Line.SBT_5141" phases=3 bus1="BT301.1.2.3.4" bus2="BT32641.1.2.3.4" linecode="74_4" length=0.00877 units=km
New "Line.SBT_5142" phases=3 bus1="BT1362.1.2.3.4" bus2="BT68492.1.2.3.4" linecode="74_4" length=0.00433 units=km
New "Line.SBT_5143" phases=3 bus1="BT7661.1.2.3.4" bus2="BT33461.1.2.3.4" linecode="74_4" length=0.03721 units=km
New "Line.SBT_5144" phases=3 bus1="BT7662.1.2.3.4" bus2="BT301.1.2.3.4" linecode="74_4" length=0.02629 units=km
New "Line.SBT_5145" phases=3 bus1="BT7671.1.2.3.4" bus2="BT11221.1.2.3.4" linecode="74_4" length=0.04000 units=km
New "Line.SBT_5146" phases=3 bus1="BT11221.1.2.3.4" bus2="BT12451.1.2.3.4" linecode="74_4" length=0.04200 units=km
New "Line.SBT_5147" phases=3 bus1="BT12451.1.2.3.4" bus2="BT12461.1.2.3.4" linecode="74_4" length=0.03390 units=km
New "Line.SBT_5148" phases=3 bus1="BT12461.1.2.3.4" bus2="BT16011.1.2.3.4" linecode="44_4" length=0.03300 units=km
New "Line.SBT_5149" phases=3 bus1="BT12471.1.2.3.4" bus2="BT33461.1.2.3.4" linecode="74_4" length=0.00800 units=km
New "Line.SBT_5150" phases=3 bus1="BT15941.1.2.3.4" bus2="BT15971.1.2.3.4" linecode="101_4" length=0.03900 units=km
New "Line.SBT_5151" phases=3 bus1="BT15951.1.2.3.4" bus2="ET1_124.1.2.3.4" linecode="44_4" length=0.03621 units=km
New "Line.SBT_5152" phases=3 bus1="BT15961.1.2.3.4" bus2="BT15981.1.2.3.4" linecode="101_4" length=0.04000 units=km
New "Line.SBT_5153" phases=3 bus1="BT15971.1.2.3.4" bus2="BT15961.1.2.3.4" linecode="101_4" length=0.02600 units=km
New "Line.SBT_5154" phases=3 bus1="BT15981.1.2.3.4" bus2="BT33312.1.2.3.4" linecode="101_4" length=0.01500 units=km
New "Line.SBT_5155" phases=3 bus1="BT16001.1.2.3.4" bus2="BT33312.1.2.3.4" linecode="101_4" length=0.03307 units=km
New "Line.SBT_5156" phases=3 bus1="BT16011.1.2.3.4" bus2="BT33312.1.2.3.4" linecode="101_4" length=0.01460 units=km
New "Line.SBT_5157" phases=3 bus1="BT16031.1.2.3.4" bus2="BT12461.1.2.3.4" linecode="44_4" length=0.03900 units=km
New "Line.SBT_5158" phases=3 bus1="BT16041.1.2.3.4" bus2="BT16031.1.2.3.4" linecode="44_4" length=0.03500 units=km
New "Line.SBT_5120" phases=3 bus1="BT84941.1.2.3.4" bus2="BT84971.1.2.3.4" linecode="101_4" length=0.03784 units=km
New "Line.SBT_5121" phases=3 bus1="BT84991.1.2.3.4" bus2="BT85071.1.2.3.4" linecode="101_4" length=0.02070 units=km
New "Line.SBT_5122" phases=3 bus1="BT85001.1.2.3.4" bus2="BT84991.1.2.3.4" linecode="101_4" length=0.03320 units=km
New "Line.SBT_5123" phases=3 bus1="BT84951.1.2.3.4" bus2="BT84971.1.2.3.4" linecode="85_4" length=0.00912 units=km
New "Line.SBT_5124" phases=3 bus1="BT84961.1.2.3.4" bus2="BT84951.1.2.3.4" linecode="85_4" length=0.02493 units=km
New "Line.SBT_5125" phases=3 bus1="BT15932.1.2.3.4" bus2="BT34411.1.2.3.4" linecode="101_4" length=0.02102 units=km
New "Line.SBT_5126" phases=3 bus1="BT18262.1.2.3.4" bus2="BT15932.1.2.3.4" linecode="101_4" length=0.04612 units=km
New "Line.SBT_5127" phases=3 bus1="BT85011.1.2.3.4" bus2="BT34411.1.2.3.4" linecode="101_4" length=0.02316 units=km
New "Line.SBT_5128" phases=2 bus1="BT2842.3.1.4" bus2="BT85031.3.1.4" linecode="93_3" length=0.02375 units=km
New "Line.SBT_5129" phases=3 bus1="BT67952.1.2.3.4" bus2="BT84931.1.2.3.4" linecode="86_4" length=0.02772 units=km
New "Line.SBT_5130" phases=3 bus1="BT72221.1.2.3.4" bus2="BT67952.1.2.3.4" linecode="86_4" length=0.02489 units=km
New "Line.SBT_5131" phases=3 bus1="BT84872.1.2.3.4" bus2="BT33551.1.2.3.4" linecode="44_4" length=0.00884 units=km
New "Line.SBT_5102" phases=3 bus1="BT29312.1.2.3.4" bus2="ET1_13.1.2.3.4" linecode="79_4" length=0.04099 units=km
New "Line.SBT_5104" phases=3 bus1="BT84901.1.2.3.4" bus2="ET1_211.1.2.3.4" linecode="101_4" length=0.03426 units=km
New "Line.SBT_5105" phases=3 bus1="BT85071.1.2.3.4" bus2="BT84901.1.2.3.4" linecode="101_4" length=0.02104 units=km
New "Line.SBT_5106" phases=3 bus1="BT84881.1.2.3.4" bus2="BT84891.1.2.3.4" linecode="101_4" length=0.04240 units=km
New "Line.SBT_5107" phases=3 bus1="BT84871.1.2.3.4" bus2="BT84881.1.2.3.4" linecode="101_4" length=0.04502 units=km
New "Line.SBT_5108" phases=3 bus1="BT84921.1.2.3.4" bus2="ET1_211.1.2.3.4" linecode="101_4" length=0.02245 units=km
New "Line.SBT_5109" phases=3 bus1="BT85081.1.2.3.4" bus2="BT84921.1.2.3.4" linecode="101_4" length=0.00806 units=km
New "Line.SBT_5110" phases=3 bus1="BT84891.1.2.3.4" bus2="BT85071.1.2.3.4" linecode="101_4" length=0.01488 units=km
New "Line.SBT_5111" phases=3 bus1="BT84931.1.2.3.4" bus2="BT85081.1.2.3.4" linecode="101_4" length=0.02227 units=km
New "Line.SBT_5112" phases=3 bus1="BT85031.1.2.3.4" bus2="BT85081.1.2.3.4" linecode="101_4" length=0.03343 units=km
New "Line.SBT_5113" phases=3 bus1="BT85021.1.2.3.4" bus2="BT85031.1.2.3.4" linecode="101_4" length=0.03541 units=km
New "Line.SBT_5114" phases=3 bus1="BT15902.1.2.3.4" bus2="BT85021.1.2.3.4" linecode="101_4" length=0.04517 units=km
New "Line.SBT_5115" phases=3 bus1="BT85041.1.2.3.4" bus2="BT85081.1.2.3.4" linecode="101_4" length=0.00923 units=km
New "Line.SBT_5116" phases=3 bus1="BT85051.1.2.3.4" bus2="BT85041.1.2.3.4" linecode="101_4" length=0.03800 units=km
New "Line.SBT_5117" phases=3 bus1="BT85061.1.2.3.4" bus2="BT85051.1.2.3.4" linecode="101_4" length=0.02944 units=km
New "Line.SBT_5118" phases=3 bus1="BT84981.1.2.3.4" bus2="BT85071.1.2.3.4" linecode="101_4" length=0.02089 units=km
New "Line.SBT_5119" phases=3 bus1="BT84971.1.2.3.4" bus2="BT84981.1.2.3.4" linecode="101_4" length=0.04270 units=km
New "Line.SBT_5085" phases=3 bus1="BT4301.1.2.3.4" bus2="BT84391.1.2.3.4" linecode="101_4" length=0.04020 units=km
New "Line.SBT_5086" phases=3 bus1="BT84391.1.2.3.4" bus2="BT32751.1.2.3.4" linecode="44_4" length=0.01544 units=km
New "Line.SBT_5087" phases=3 bus1="BT84401.1.2.3.4" bus2="BT4301.1.2.3.4" linecode="101_4" length=0.03412 units=km
New "Line.SBT_5088" phases=3 bus1="BT84411.1.2.3.4" bus2="BT84401.1.2.3.4" linecode="101_4" length=0.04409 units=km
New "Line.SBT_5089" phases=3 bus1="BT84421.1.2.3.4" bus2="BT84411.1.2.3.4" linecode="101_4" length=0.03637 units=km
New "Line.SBT_5092" phases=3 bus1="BT24661.1.2.3.4" bus2="BT27581.1.2.3.4" linecode="101_4" length=0.03900 units=km
New "Line.SBT_5093" phases=3 bus1="BT27581.1.2.3.4" bus2="BT27591.1.2.3.4" linecode="101_4" length=0.03900 units=km
New "Line.SBT_5094" phases=3 bus1="BT4582.1.2.3.4" bus2="BT33601.1.2.3.4" linecode="101_4" length=0.03978 units=km
New "Line.SBT_5095" phases=3 bus1="BT19551.1.2.3.4" bus2="BT33601.1.2.3.4" linecode="101_4" length=0.01222 units=km
New "Line.SBT_5096" phases=3 bus1="BT19561.1.2.3.4" bus2="BT19551.1.2.3.4" linecode="101_4" length=0.04650 units=km
New "Line.SBT_5068" phases=3 bus1="BT84251.1.2.3.4" bus2="ET1_209.1.2.3.4" linecode="101_4" length=0.04100 units=km
New "Line.SBT_5069" phases=3 bus1="BT84331.1.2.3.4" bus2="BT84251.1.2.3.4" linecode="101_4" length=0.00985 units=km
New "Line.SBT_5070" phases=3 bus1="BT84221.1.2.3.4" bus2="BT84231.1.2.3.4" linecode="101_4" length=0.04024 units=km
New "Line.SBT_5071" phases=3 bus1="BT84271.1.2.3.4" bus2="ET1_209.1.2.3.4" linecode="101_4" length=0.03087 units=km
New "Line.SBT_5072" phases=3 bus1="BT84281.1.2.3.4" bus2="BT84271.1.2.3.4" linecode="101_4" length=0.05078 units=km
New "Line.SBT_5073" phases=3 bus1="BT84291.1.2.3.4" bus2="BT84281.1.2.3.4" linecode="101_4" length=0.04090 units=km
New "Line.SBT_5074" phases=3 bus1="BT84302.1.2.3.4" bus2="BT84291.1.2.3.4" linecode="101_4" length=0.01480 units=km
New "Line.SBT_5075" phases=3 bus1="BT84231.1.2.3.4" bus2="BT84331.1.2.3.4" linecode="101_4" length=0.03080 units=km
New "Line.SBT_5076" phases=3 bus1="BT84241.1.2.3.4" bus2="BT84331.1.2.3.4" linecode="101_4" length=0.00518 units=km
New "Line.SBT_5077" phases=3 bus1="BT84311.1.2.3.4" bus2="BT84331.1.2.3.4" linecode="101_4" length=0.02826 units=km
New "Line.SBT_5078" phases=3 bus1="BT84321.1.2.3.4" bus2="BT84311.1.2.3.4" linecode="101_4" length=0.03101 units=km
New "Line.SBT_5019" phases=3 bus1="BT15711.1.2.3.4" bus2="BT15701.1.2.3.4" linecode="74_4" length=0.04500 units=km
New "Line.SBT_5020" phases=3 bus1="BT15721.1.2.3.4" bus2="BT15711.1.2.3.4" linecode="74_4" length=0.03000 units=km
New "Line.SBT_5021" phases=3 bus1="BT15731.1.2.3.4" bus2="BT15741.1.2.3.4" linecode="44_4" length=0.03900 units=km
New "Line.SBT_5022" phases=3 bus1="BT15741.1.2.3.4" bus2="BT18202.1.2.3.4" linecode="44_4" length=0.04200 units=km
New "Line.SBT_5023" phases=3 bus1="BT15761.1.2.3.4" bus2="BT15771.1.2.3.4" linecode="44_4" length=0.03200 units=km
New "Line.SBT_5024" phases=3 bus1="BT15771.1.2.3.4" bus2="BT14631.1.2.3.4" linecode="44_4" length=0.03600 units=km
New "Line.SBT_5025" phases=3 bus1="BT18181.1.2.3.4" bus2="BT18191.1.2.3.4" linecode="44_4" length=0.03171 units=km
New "Line.SBT_5026" phases=3 bus1="BT18191.1.2.3.4" bus2="ET1_208.1.2.3.4" linecode="44_4" length=0.03428 units=km
New "Line.SBT_5027" phases=3 bus1="BT18202.1.2.3.4" bus2="BT18191.1.2.3.4" linecode="44_4" length=0.03447 units=km
New "Line.SBT_5028" phases=3 bus1="BT31671.1.2.3.4" bus2="BT15761.1.2.3.4" linecode="44_4" length=0.02166 units=km
New "Line.SBT_5029" phases=3 bus1="BT32622.1.2.3.4" bus2="BT1102.1.2.3.4" linecode="44_4" length=0.03002 units=km
New "Line.SBT_5030" phases=3 bus1="BT33121.1.2.3.4" bus2="BT15731.1.2.3.4" linecode="44_4" length=0.03041 units=km
New "Line.SBT_5031" phases=3 bus1="BT64231.1.2.3.4" bus2="ET1_208.1.2.3.4" linecode="44_4" length=0.03022 units=km
New "Line.SBT_5032" phases=3 bus1="BT72461.1.2.3.4" bus2="BT18181.1.2.3.4" linecode="44_4" length=0.03300 units=km
New "Line.SBT_5034" phases=3 bus1="BT8361.1.2.3.4" bus2="ET1_47.1.2.3.4" linecode="83_4" length=0.04500 units=km
New "Line.SBT_5035" phases=3 bus1="BT75962.1.2.3.4" bus2="BT84001.1.2.3.4" linecode="86_4" length=0.02300 units=km
New "Line.SBT_5036" phases=3 bus1="BT83991.1.2.3.4" bus2="BT12221.1.2.3.4" linecode="85_4" length=0.04000 units=km
New "Line.SBT_5037" phases=3 bus1="BT84001.1.2.3.4" bus2="BT83991.1.2.3.4" linecode="85_4" length=0.03150 units=km
New "Line.SBT_4999" phases=3 bus1="BT14331.1.2.3.4" bus2="ET1_22.1.2.3.4" linecode="44_4" length=0.00900 units=km
New "Line.SBT_5000" phases=3 bus1="BT731.1.2.3.4" bus2="BT1091.1.2.3.4" linecode="44_4" length=0.05200 units=km
New "Line.SBT_5001" phases=3 bus1="BT1091.1.2.3.4" bus2="BT32622.1.2.3.4" linecode="44_4" length=0.01405 units=km
New "Line.SBT_5002" phases=3 bus1="BT1102.1.2.3.4" bus2="ET1_152.1.2.3.4" linecode="101_4" length=0.02100 units=km
New "Line.SBT_5003" phases=3 bus1="BT12101.1.2.3.4" bus2="BT14621.1.2.3.4" linecode="74_4" length=0.01950 units=km
New "Line.SBT_5004" phases=3 bus1="BT12111.1.2.3.4" bus2="BT12101.1.2.3.4" linecode="74_4" length=0.03500 units=km
New "Line.SBT_5005" phases=3 bus1="BT12121.1.2.3.4" bus2="BT12111.1.2.3.4" linecode="74_4" length=0.04700 units=km
New "Line.SBT_5006" phases=3 bus1="BT14591.1.2.3.4" bus2="BT14601.1.2.3.4" linecode="30_4" length=0.04550 units=km
New "Line.SBT_5007" phases=3 bus1="BT14601.1.2.3.4" bus2="BT33121.1.2.3.4" linecode="30_4" length=0.03957 units=km
...
