output/1_TAP2_1/Ramais_BT_1_TAP2_1.dss
New "Line.RBT_11022" phases=2 bus1="UC11022.1.4" bus2="BT6441.1.4" linecode="92_2" length=0.01350 units=km
New "Line.RBT_11061" phases=2 bus1="UC11061.2.4" bus2="BT74191.2.4" linecode="92_2" length=0.01100 units=km
New "Line.RBT_10909" phases=2 bus1="UC10909.1.4" bus2="BT74421.1.4" linecode="92_2" length=0.02600 units=km
New "Line.RBT_10910" phases=2 bus1="UC10910.1.4" bus2="BT74391.1.4" linecode="92_2" length=0.01950 units=km
New "Line.RBT_10986" phases=3 bus1="UC10986.2.3.4" bus2="BT75431.2.3.4" linecode="93_3" length=0.01500 units=km
New "Line.RBT_10971" phases=3 bus1="UC10971.2.3.4" bus2="BT24001.2.3.4" linecode="93_3" length=0.01500 units=km
New "Line.RBT_6813" phases=2 bus1="UC6813.3.4" bus2="BT2331.3.4" linecode="87_2" length=0.01600 units=km
New "Line.RBT_222" phases=2 bus1="UC222.3.4" bus2="BT23671.3.4" linecode="87_2" length=0.01200 units=km
New "Line.RBT_1985" phases=2 bus1="UC1985.1.4" bus2="BT6731.1.4" linecode="102_2" length=0.01600 units=km
New "Line.RBT_5203" phases=2 bus1="UC5203.3.4" bus2="BT14881.3.4" linecode="87_2" length=0.02200 units=km
New "Line.RBT_6369" phases=2 bus1="UC6369.2.4" bus2="BT2621.2.4" linecode="92_2" length=0.00500 units=km
New "Line.RBT_1984" phases=2 bus1="UC1984.3.4" bus2="BT10521.3.4" linecode="92_2" length=0.02300 units=km
New "Line.RBT_2800" phases=2 bus1="UC2800.3.4" bus2="BT4741.3.4" linecode="92_2" length=0.00550 units=km
New "Line.RBT_10982" phases=2 bus1="UC10982.3.4" bus2="BT73701.3.4" linecode="92_2" length=0.02250 units=km
New "Line.RBT_10993" phases=2 bus1="UC10993.3.4" bus2="BT73711.3.4" linecode="92_2" length=0.01100 units=km
New "Line.RBT_10972" phases=2 bus1="UC10972.1.4" bus2="BT74371.1.4" linecode="92_2" length=0.01150 units=km
New "Line.RBT_10996" phases=2 bus1="UC10996.2.4" bus2="BT74281.2.4" linecode="92_2" length=0.01950 units=km
New "Line.RBT_10991" phases=3 bus1="UC10991.1.2.4" bus2="BT74251.1.2.4" linecode="93_3" length=0.01750 units=km
New "Line.RBT_10952" phases=2 bus1="UC10952.3.4" bus2="BT73821.3.4" linecode="92_2" length=0.02000 units=km
New "Line.RBT_10934" phases=2 bus1="UC10934.2.4" bus2="BT73901.2.4" linecode="92_2" length=0.01400 units=km
New "Line.RBT_10954" phases=2 bus1="UC10954.1.4" bus2="BT73911.1.4" linecode="92_2" length=0.00400 units=km
New "Line.RBT_11007" phases=3 bus1="UC11007.1.2.4" bus2="BT1431.1.2.4" linecode="93_3" length=0.01300 units=km
New "Line.RBT_11028" phases=2 bus1="UC11028.2.4" bus2="BT4301.2.4" linecode="92_2" length=0.02200 units=km
New "Line.RBT_6503" phases=4 bus1="UC6503.1.2.3.4" bus2="BT26221.1.2.3.4" linecode="86_4" length=0.01700 units=km
New "Line.RBT_1959" phases=2 bus1="UC1959.2.4" bus2="BT18392.2.4" linecode="92_2" length=0.01000 units=km
New "Line.RBT_849" phases=2 bus1="UC849.3.4" bus2="BT30321.3.4" linecode="92_2" length=0.01100 units=km
New "Line.RBT_176" phases=3 bus1="UC176.1.2.4" bus2="BT7471.1.2.4" linecode="93_3" length=0.01700 units=km
New "Line.RBT_1849" phases=2 bus1="UC1849.1.4" bus2="BT21.1.4" linecode="102_2" length=0.01400 units=km
New "Line.RBT_5596" phases=2 bus1="UC5596.2.4" bus2="BT9911.2.4" linecode="87_2" length=0.02400 units=km
New "Line.RBT_1989" phases=2 bus1="UC1989.2.4" bus2="BT7731.2.4" linecode="102_2" length=0.01600 units=km
New "Line.RBT_5564" phases=2 bus1="UC5564.3.4" bus2="BT2231.3.4" linecode="87_2" length=0.02500 units=km
New "Line.RBT_838" phases=2 bus1="UC838.2.4" bus2="BT11641.2.4" linecode="102_2" length=0.01200 units=km
New "Line.RBT_10989" phases=3 bus1="UC10989.2.3.4" bus2="BT12921.2.3.4" linecode="93_3" length=0.01700 units=km
New "Line.RBT_10945" phases=2 bus1="UC10945.1.4" bus2="BT74381.1.4" linecode="92_2" length=0.00300 units=km
New "Line.RBT_10940" phases=4 bus1="UC10940.1.2.3.4" bus2="BT12911.1.2.3.4" linecode="86_4" length=0.02200 units=km
New "Line.RBT_10928" phases=2 bus1="UC10928.2.4" bus2="BT64701.2.4" linecode="87_2" length=0.02250 units=km
New "Line.RBT_1600" phases=3 bus1="UC1600.1.2.4" bus2="BT2612.1.2.4" linecode="93_3" length=0.00500 units=km
New "Line.RBT_7145" phases=2 bus1="UC7145.2.4" bus2="BT851.2.4" linecode="102_2" length=0.02200 units=km
New "Line.RBT_10929" phases=3 bus1="UC10929.1.2.4" bus2="BT5791.1.2.4" linecode="93_3" length=0.00200 units=km
New "Line.RBT_10941" phases=3 bus1="UC10941.2.3.4" bus2="BT73911.2.3.4" linecode="93_3" length=0.01300 units=km
New "Line.RBT_1454" phases=3 bus1="UC1454.1.2.4" bus2="BT2792.1.2.4" linecode="93_3" length=0.01200 units=km
New "Line.RBT_5488" phases=2 bus1="UC5488.3.4" bus2="BT16111.3.4" linecode="102_2" length=0.02400 units=km
New "Line.RBT_1992" phases=2 bus1="UC1992.3.4" bus2="BT77111.3.4" linecode="102_2" length=0.00950 units=km
New "Line.RBT_111" phases=2 bus1="UC111.2.4" bus2="BT2491.2.4" linecode="87_2" length=0.01400 units=km
New "Line.RBT_6588" phases=3 bus1="UC6588.1.2.4" bus2="BT9361.1.2.4" linecode="93_3" length=0.00300 units=km
New "Line.RBT_1142" phases=2 bus1="UC1142.2.4" bus2="BT8551.2.4" linecode="92_2" length=0.01850 units=km
New "Line.RBT_99" phases=4 bus1="UC99.1.2.3.4" bus2="BT6371.1.2.3.4" linecode="86_4" length=0.00500 units=km
New "Line.RBT_1464" phases=2 bus1="UC1464.1.4" bus2="BT23951.1.4" linecode="102_2" length=0.02300 units=km
New "Line.RBT_696" phases=2 bus1="UC696.2.4" bus2="BT23621.2.4" linecode="102_2" length=0.02600 units=km
New "Line.RBT_10959" phases=2 bus1="UC10959.2.4" bus2="BT3411.2.4" linecode="92_2" length=0.01250 units=km
New "Line.RBT_9207" phases=3 bus1="UC9207.1.2.4" bus2="BT68501.1.2.4" linecode="93_3" length=0.01700 units=km
New "Line.RBT_875" phases=2 bus1="UC875.3.4" bus2="BT23671.3.4" linecode="92_2" length=0.02350 units=km
New "Line.RBT_5728" phases=4 bus1="UC5728.1.2.3.4" bus2="BT7891.1.2.3.4" linecode="86_4" length=0.00700 units=km
New "Line.RBT_6690" phases=2 bus1="UC6690.2.4" bus2="BT75451.2.4" linecode="102_2" length=0.01300 units=km
New "Line.RBT_7181" phases=2 bus1="UC7181.2.4" bus2="BT10221.2.4" linecode="102_2" length=0.01400 units=km
New "Line.RBT_10493" phases=4 bus1="UC10493.1.2.3.4" bus2="BT21891.1.2.3.4" linecode="86_4" length=0.01500 units=km
New "Line.RBT_7332" phases=2 bus1="UC7332.2.4" bus2="BT8601.2.4" linecode="102_2" length=0.01350 units=km
New "Line.RBT_5176" phases=4 bus1="UC5176.1.2.3.4" bus2="ET1_13.1.2.3.4" linecode="86_4" length=0.02000 units=km
New "Line.RBT_282" phases=4 bus1="UC282.1.2.3.4" bus2="BT29211.1.2.3.4" linecode="86_4" length=0.02000 units=km
New "Line.RBT_8062" phases=4 bus1="UC8062.1.2.3.4" bus2="BT2301.1.2.3.4" linecode="86_4" length=0.01500 units=km
New "Line.RBT_7595" phases=4 bus1="UC7595.1.2.3.4" bus2="ET1_139.1.2.3.4" linecode="86_4" length=0.00600 units=km
New "Line.RBT_7163" phases=2 bus1="UC7163.3.4" bus2="BT14211.3.4" linecode="87_2" length=0.00450 units=km
New "Line.RBT_7009" phases=4 bus1="UC7009.1.2.3.4" bus2="BT14021.1.2.3.4" linecode="94_4" length=0.00800 units=km
New "Line.RBT_5609" phases=2 bus1="UC5609.2.4" bus2="ET1_131.2.4" linecode="92_2" length=0.01450 units=km
New "Line.RBT_7464" phases=2 bus1="UC7464.2.4" bus2="ET1_179.2.4" linecode="87_2" length=0.00950 units=km
New "Line.RBT_5429" phases=2 bus1="UC5429.1.4" bus2="BT761.1.4" linecode="92_2" length=0.00900 units=km
New "Line.RBT_1948" phases=4 bus1="UC1948.1.2.3.4" bus2="BT2511.1.2.3.4" linecode="94_4" length=0.00500 units=km
New "Line.RBT_5613" phases=2 bus1="UC5613.1.4" bus2="BT3811.1.4" linecode="92_2" length=0.00800 units=km
New "Line.RBT_2254" phases=2 bus1="UC2254.3.4" bus2="BT15891.3.4" linecode="102_2" length=0.02400 units=km
New "Line.RBT_7404" phases=2 bus1="UC7404.3.4" bus2="BT7971.3.4" linecode="87_2" length=0.02300 units=km
New "Line.RBT_6605" phases=4 bus1="UC6605.1.2.3.4" bus2="BT21171.1.2.3.4" linecode="86_4" length=0.01800 units=km
New "Line.RBT_6638" phases=4 bus1="UC6638.1.2.3.4" bus2="BT2341.1.2.3.4" linecode="105_4" length=0.02250 units=km
New "Line.RBT_802" phases=2 bus1="UC802.2.4" bus2="BT20981.2.4" linecode="102_2" length=0.01100 units=km
New "Line.RBT_2287" phases=2 bus1="UC2287.3.4" bus2="BT6541.3.4" linecode="102_2" length=0.01100 units=km
New "Line.RBT_5659" phases=2 bus1="UC5659.2.4" bus2="BT3801.2.4" linecode="92_2" length=0.01200 units=km
New "Line.RBT_8651" phases=2 bus1="UC8651.2.4" bus2="BT14701.2.4" linecode="92_2" length=0.01250 units=km
New "Line.RBT_11069" phases=4 bus1="UC11069.1.2.3.4" bus2="ET1_167.1.2.3.4" linecode="94_4" length=0.01000 units=km
New "Line.RBT_265" phases=3 bus1="UC265.2.3.4" bus2="BT19521.2.3.4" linecode="93_3" length=0.00500 units=km
New "Line.RBT_10084" phases=2 bus1="UC10084.3.4" bus2="BT28381.3.4" linecode="87_2" length=0.01950 units=km
New "Line.RBT_2319" phases=3 bus1="UC2319.2.3.4" bus2="BT7721.2.3.4" linecode="93_3" length=0.00300 units=km
New "Line.RBT_9281" phases=2 bus1="UC9281.1.4" bus2="BT27551.1.4" linecode="92_2" length=0.02100 units=km
New "Line.RBT_2496" phases=2 bus1="UC2496.3.4" bus2="BT16211.3.4" linecode="102_2" length=0.01800 units=km
New "Line.RBT_1945" phases=2 bus1="UC1945.1.4" bus2="BT26261.1.4" linecode="102_2" length=0.01300 units=km
New "Line.RBT_5880" phases=2 bus1="UC5880.3.4" bus2="BT2792.3.4" linecode="102_2" length=0.02400 units=km
New "Line.RBT_7873" phases=3 bus1="UC7873.3.1.4" bus2="BT17311.3.1.4" linecode="106_3" length=0.00600 units=km
New "Line.RBT_1664" phases=2 bus1="UC1664.1.4" bus2="BT11531.1.4" linecode="92_2" length=0.01700 units=km
New "Line.RBT_5612" phases=3 bus1="UC5612.1.2.4" bus2="ET1_131.1.2.4" linecode="93_3" length=0.01400 units=km
New "Line.RBT_7384" phases=2 bus1="UC7384.2.4" bus2="BT3452.2.4" linecode="92_2" length=0.01000 units=km
New "Line.RBT_11081" phases=2 bus1="UC11081.1.4" bus2="BT74381.1.4" linecode="92_2" length=0.01450 units=km
New "Line.RBT_11105" phases=2 bus1="UC11105.3.4" bus2="BT74281.3.4" linecode="92_2" length=0.01200 units=km
New "Line.RBT_5920" phases=2 bus1="UC5920.1.4" bus2="BT361.1.4" linecode="87_2" length=0.01800 units=km
New "Line.RBT_378" phases=3 bus1="UC378.1.2.4" bus2="BT8981.1.2.4" linecode="93_3" length=0.00200 units=km
New "Line.RBT_8055" phases=2 bus1="UC8055.3.4" bus2="BT1271.3.4" linecode="87_2" length=0.01850 units=km
New "Line.RBT_1484" phases=2 bus1="UC1484.3.4" bus2="BT77681.3.4" linecode="92_2" length=0.01300 units=km
New "Line.RBT_389" phases=2 bus1="UC389.2.4" bus2="BT13991.2.4" linecode="92_2" length=0.00850 units=km
New "Line.RBT_682" phases=4 bus1="UC682.1.2.3.4" bus2="BT251.1.2.3.4" linecode="86_4" length=0.01200 units=km
New "Line.RBT_231" phases=2 bus1="UC231.1.4" bus2="BT15131.1.4" linecode="102_2" length=0.01200 units=km
New "Line.RBT_10258" phases=2 bus1="UC10258.1.4" bus2="BT10121.1.4" linecode="92_2" length=0.00300 units=km
New "Line.RBT_2296" phases=4 bus1="UC2296.1.2.3.4" bus2="BT8971.1.2.3.4" linecode="94_4" length=0.00500 units=km
New "Line.RBT_2344" phases=3 bus1="UC2344.3.1.4" bus2="BT6352.3.1.4" linecode="93_3" length=0.01400 units=km
New "Line.RBT_5955" phases=2 bus1="UC5955.1.4" bus2="BT20682.1.4" linecode="92_2" length=0.00900 units=km
New "Line.RBT_9116" phases=2 bus1="UC9116.3.4" bus2="BT3831.3.4" linecode="92_2" length=0.01100 units=km
New "Line.RBT_10839" phases=2 bus1="UC10839.1.4" bus2="BT74171.1.4" linecode="92_2" length=0.02450 units=km
New "Line.RBT_270" phases=4 bus1="UC270.1.2.3.4" bus2="BT13791.1.2.3.4" linecode="86_4" length=0.00600 units=km
New "Line.RBT_7462" phases=3 bus1="UC7462.1.2.4" bus2="ET1_41.1.2.4" linecode="95_3" length=0.02000 units=km
New "Line.RBT_1924" phases=3 bus1="UC1924.3.1.4" bus2="BT80031.3.1.4" linecode="93_3" length=0.02200 units=km
New "Line.RBT_201" phases=4 bus1="UC201.1.2.3.4" bus2="BT7851.1.2.3.4" linecode="86_4" length=0.02400 units=km
New "Line.RBT_184" phases=2 bus1="UC184.2.4" bus2="BT11171.2.4" linecode="87_2" length=0.01250 units=km
New "Line.RBT_984" phases=2 bus1="UC984.1.4" bus2="BT981.1.4" linecode="92_2" length=0.01100 units=km
New "Line.RBT_332" phases=2 bus1="UC332.1.4" bus2="BT931.1.4" linecode="92_2" length=0.00650 units=km
New "Line.RBT_1430" phases=4 bus1="UC1430.1.2.3.4" bus2="ET1_14.1.2.3.4" linecode="86_4" length=0.02200 units=km
New "Line.RBT_6336" phases=4 bus1="UC6336.1.2.3.4" bus2="BT2171.1.2.3.4" linecode="86_4" length=0.01800 units=km
New "Line.RBT_892" phases=2 bus1="UC892.1.4" bus2="BT18291.1.4" linecode="87_2" length=0.02400 units=km
New "Line.RBT_5138" phases=4 bus1="UC5138.1.2.3.4" bus2="BT16601.1.2.3.4" linecode="94_4" length=0.02400 units=km
New "Line.RBT_1085" phases=3 bus1="UC1085.3.1.4" bus2="BT17511.3.1.4" linecode="93_3" length=0.02100 units=km
New "Line.RBT_1007" phases=2 bus1="UC1007.1.4" bus2="BT18451.1.4" linecode="102_2" length=0.02000 units=km
New "Line.RBT_1275" phases=2 bus1="UC1275.1.4" bus2="BT13501.1.4" linecode="87_2" length=0.01600 units=km
New "Line.RBT_1851" phases=2 bus1="UC1851.2.4" bus2="BT3521.2.4" linecode="92_2" length=0.01000 units=km
New "Line.RBT_9095" phases=3 bus1="UC9095.1.2.4" bus2="BT14571.1.2.4" linecode="93_3" length=0.01700 units=km
New "Line.RBT_10031" phases=2 bus1="UC10031.1.4" bus2="BT2931.1.4" linecode="92_2" length=0.01000 units=km
New "Line.RBT_8082" phases=4 bus1="UC8082.1.2.3.4" bus2="BT893.1.2.3.4" linecode="94_4" length=0.02400 units=km
New "Line.RBT_1697" phases=3 bus1="UC1697.2.3.4" bus2="BT11491.2.3.4" linecode="93_3" length=0.01300 units=km
New "Line.RBT_1928" phases=2 bus1="UC1928.1.4" bus2="BT16211.1.4" linecode="92_2" length=0.00600 units=km
New "Line.RBT_1068" phases=2 bus1="UC1068.3.4" bus2="BT14701.3.4" linecode="102_2" length=0.00600 units=km
New "Line.RBT_1405" phases=2 bus1="UC1405.2.4" bus2="BT18401.2.4" linecode="102_2" length=0.01100 units=km
New "Line.RBT_6411" phases=2 bus1="UC6411.2.4" bus2="BT17331.2.4" linecode="87_2" length=0.01100 units=km
New "Line.RBT_5143" phases=2 bus1="UC5143.2.4" bus2="BT12091.2.4" linecode="87_2" length=0.01400 units=km
New "Line.RBT_1536" phases=2 bus1="UC1536.3.4" bus2="BT6311.3.4" linecode="102_2" length=0.01700 units=km
New "Line.RBT_504" phases=2 bus1="UC504.1.4" bus2="BT15191.1.4" linecode="92_2" length=0.01800 units=km
New "Line.RBT_6338" phases=2 bus1="UC6338.3.4" bus2="ET1_131.3.4" linecode="92_2" length=0.02000 units=km
New "Line.RBT_6236" phases=4 bus1="UC6236.1.2.3.4" bus2="BT6841.1.2.3.4" linecode="86_4" length=0.02400 units=km
New "Line.RBT_1594" phases=2 bus1="UC1594.2.4" bus2="BT7831.2.4" linecode="102_2" length=0.02300 units=km
New "Line.RBT_2282" phases=2 bus1="UC2282.3.4" bus2="BT2911.3.4" linecode="92_2" length=0.00400 units=km
New "Line.RBT_230" phases=2 bus1="UC230.2.4" bus2="BT4181.2.4" linecode="87_2" length=0.01900 units=km
New "Line.RBT_6386" phases=2 bus1="UC6386.2.4" bus2="BT18122.2.4" linecode="87_2" length=0.00500 units=km
New "Line.RBT_2878" phases=2 bus1="UC2878.3.4" bus2="BT17491.3.4" linecode="87_2" length=0.01000 units=km
New "Line.RBT_5735" phases=2 bus1="UC5735.2.4" bus2="BT16761.2.4" linecode="102_2" length=0.02500 units=km
New "Line.RBT_9134" phases=4 bus1="UC9134.1.2.3.4" bus2="ET1_30.1.2.3.4" linecode="94_4" length=0.01400 units=km
New "Line.RBT_2316" phases=2 bus1="UC2316.1.4" bus2="BT3411.1.4" linecode="92_2" length=0.00950 units=km
New "Line.RBT_1345" phases=2 bus1="UC1345.3.4" bus2="BT1981.3.4" linecode="102_2" length=0.02800 units=km
New "Line.RBT_5338" phases=2 bus1="UC5338.2.4" bus2="BT91.2.4" linecode="87_2" length=0.01450 units=km
New "Line.RBT_7752" phases=2 bus1="UC7752.2.4" bus2="BT7721.2.4" linecode="87_2" length=0.01000 units=km
New "Line.RBT_71" phases=2 bus1="UC71.3.4" bus2="BT14311.3.4" linecode="92_2" length=0.02000 units=km
New "Line.RBT_7180" phases=3 bus1="UC7180.1.2.4" bus2="BT24001.1.2.4" linecode="95_3" length=0.01450 units=km
New "Line.RBT_7148" phases=2 bus1="UC7148.3.4" bus2="BT77091.3.4" linecode="87_2" length=0.00750 units=km
New "Line.RBT_632" phases=2 bus1="UC632.3.4" bus2="BT11451.3.4" linecode="87_2" length=0.01000 units=km
New "Line.RBT_5006" phases=4 bus1="UC5006.1.2.3.4" bus2="BT8251.1.2.3.4" linecode="94_4" length=0.02300 units=km
New "Line.RBT_734" phases=2 bus1="UC734.1.4" bus2="BT30111.1.4" linecode="87_2" length=0.02800 units=km
New "Line.RBT_5147" phases=2 bus1="UC5147.3.4" bus2="BT11631.3.4" linecode="102_2" length=0.01250 units=km
...