output/1_TAP2_1/Transformador_MTBT_1_TAP2_1.dss
New "Transformer.TRF_1_165" phases=3 windings=2 buses=["86851.1.2.3" "ET1_165.1.2.3.4"] conns=[Delta Wye ] kvs=[13.8 0.38] taps=[1.045 1.045] kvas=[45.0 45.0] %loadloss=1.853 %noloadloss=0.478
New "Reactor.TRF_1_165 phases=1 bus1="ET1_165.4" R=15 X=0 basefeq=60

New "Transformer.TRF_1_14" phases=3 windings=2 buses=["13511.1.2.3" "ET1_14.1.2.3.4"] conns=[Delta Wye ] kvs=[13.8 0.38] taps=[1.045 1.045] kvas=[75.0 75.0] %loadloss=1.769 %noloadloss=0.445
New "Reactor.TRF_1_14 phases=1 bus1="ET1_14.4" R=15 X=0 basefeq=60

New "Transformer.TRF_1_206" phases=3 windings=2 buses=["83921.1.2.3" "ET1_206.1.2.3.4"] conns=[Delta Wye ] kvs=[13.8 0.38] taps=[1.045 1.045] kvas=[75.0 75.0] %loadloss=1.769 %noloadloss=0.445
New "Reactor.TRF_1_206 phases=1 bus1="ET1_206.4" R=15 X=0 basefeq=60

New "Transformer.TRF_1_207" phases=3 windings=2 buses=["83661.1.2.3" "ET1_207.1.2.3.4"] conns=[Delta Wye ] kvs=[13.8 0.38] taps=[1.045 1.045] kvas=[225.0 225.0] %loadloss=1.200 %noloadloss=0.340
New "Reactor.TRF_1_207 phases=1 bus1="ET1_207.4" R=15 X=0 basefeq=60

New "Transformer.TRF_1_22" phases=3 windings=2 buses=["841.1.2.3" "ET1_22.1.2.3.4"] conns=[Delta Wye ] kvs=[13.8 0.38] taps=[1.045 1.045] kvas=[150.0 150.0] %loadloss=1.249 %noloadloss=0.308
New "Reactor.TRF_1_22 phases=1 bus1="ET1_22.4" R=15 X=0 basefeq=60

New "Transformer.TRF_1_208" phases=3 windings=2 buses=["83981.1.2.3" "ET1_208.1.2.3.4"] conns=[Delta Wye ] kvs=[13.8 0.38] taps=[1.045 1.045] kvas=[112.5 112.5] %loadloss=1.876 %noloadloss=0.382
New "Reactor.TRF_1_208 phases=1 bus1="ET1_208.4" R=15 X=0 basefeq=60

New "Transformer.TRF_1_101" phases=3 windings=2 buses=["17321.1.2.3" "ET1_101.1.2.3.4"] conns=[Delta Wye ] kvs=[13.8 0.38] taps=[1.045 1.045] kvas=[112.5 112.5] %loadloss=1.876 %noloadloss=0.382
New "Reactor.TRF_1_101 phases=1 bus1="ET1_101.4" R=15 X=0 basefeq=60

New "Transformer.TRF_1_209" phases=3 windings=2 buses=["84261.1.2.3" "ET1_209.1.2.3.4"] conns=[Delta Wye ] kvs=[13.8 0.38] taps=[1.045 1.045] kvas=[75.0 75.0] %loadloss=1.769 %noloadloss=0.445
New "Reactor.TRF_1_209 phases=1 bus1="ET1_209.4" R=15 X=0 basefeq=60

New "Transformer.TRF_1_13" phases=3 windings=2 buses=["27801.1.2.3" "ET1_13.1.2.3.4"] conns=[Delta Wye ] kvs=[13.8 0.38] taps=[1.045 1.045] kvas=[150.0 150.0] %loadloss=1.249 %noloadloss=0.308
New "Reactor.TRF_1_13 phases=1 bus1="ET1_13.4" R=15 X=0 basefeq=60

New "Transformer.TRF_1_212" phases=3 windings=2 buses=["84471.1.2.3" "ET1_212.1.2.3.4"] conns=[Delta Wye ] kvs=[13.8 0.38] taps=[1.045 1.045] kvas=[225.0 225.0] %loadloss=1.200 %noloadloss=0.340
New "Reactor.TRF_1_212 phases=1 bus1="ET1_212.4" R=15 X=0 basefeq=60

New "Transformer.TRF_1_211" phases=3 windings=2 buses=["84911.1.2.3" "ET1_211.1.2.3.4"] conns=[Delta Wye ] kvs=[13.8 0.38] taps=[1.045 1.045] kvas=[75.0 75.0] %loadloss=1.769 %noloadloss=0.445
New "Reactor.TRF_1_211 phases=1 bus1="ET1_211.4" R=15 X=0 basefeq=60

New "Transformer.TRF_1_124" phases=3 windings=2 buses=["85143.1.2.3" "ET1_124.1.2.3.4"] conns=[Delta Wye ] kvs=[13.8 0.38] taps=[1.045 1.045] kvas=[150.0 150.0] %loadloss=1.249 %noloadloss=0.308
New "Reactor.TRF_1_124 phases=1 bus1="ET1_124.4" R=15 X=0 basefeq=60

New "Transformer.TRF_1_81" phases=3 windings=2 buses=["17141.1.2.3" "ET1_81.1.2.3.4"] conns=[Delta Wye ] kvs=[13.8 0.38] taps=[1.045 1.045] kvas=[75.0 75.0] %loadloss=1.769 %noloadloss=0.445
New "Reactor.TRF_1_81 phases=1 bus1="ET1_81.4" R=15 X=0 basefeq=60

New "Transformer.TRF_1_155" phases=3 windings=2 buses=["73751.1.2.3" "ET1_155.1.2.3.4"] conns=[Delta Wye ] kvs=[13.8 0.38] taps=[1.045 1.045] kvas=[112.5 112.5] %loadloss=1.876 %noloadloss=0.382
New "Reactor.TRF_1_155 phases=1 bus1="ET1_155.4" R=15 X=0 basefeq=60

New "Transformer.TRF_1_213" phases=3 windings=2 buses=["24891.1.2.3" "ET1_213.1.2.3.4"] conns=[Delta Wye ] kvs=[13.8 0.38] taps=[1.045 1.045] kvas=[150.0 150.0] %loadloss=1.249 %noloadloss=0.308
New "Reactor.TRF_1_213 phases=1 bus1="ET1_213.4" R=15 X=0 basefeq=60

New "Transformer.TRF_1_214" phases=3 windings=2 buses=["86301.1.2.3" "ET1_214.1.2.3.4"] conns=[Delta Wye ] kvs=[13.8 0.38] taps=[1.045 1.045] kvas=[75.0 75.0] %loadloss=1.769 %noloadloss=0.445
New "Reactor.TRF_1_214 phases=1 bus1="ET1_214.4" R=15 X=0 basefeq=60

New "Transformer.TRF_1_107" phases=3 windings=2 buses=["11441.1.2.3" "ET1_107.1.2.3.4"] conns=[Delta Wye ] kvs=[13.8 0.38] taps=[1.045 1.045] kvas=[150.0 150.0] %loadloss=1.249 %noloadloss=0.308
New "Reactor.TRF_1_107 phases=1 bus1="ET1_107.4" R=15 X=0 basefeq=60

New "Transformer.TRF_1_46" phases=3 windings=2 buses=["2561.1.2.3" "ET1_46.1.2.3.4"] conns=[Delta Wye ] kvs=[13.8 0.38] taps=[1.045 1.045] kvas=[75.0 75.0] %loadloss=1.769 %noloadloss=0.445
New "Reactor.TRF_1_46 phases=1 bus1="ET1_46.4" R=15 X=0 basefeq=60

New "Transformer.TRF_1_70" phases=3 windings=2 buses=["14551.1.2.3" "ET1_70.1.2.3.4"] conns=[Delta Wye ] kvs=[13.8 0.38] taps=[1.045 1.045] kvas=[150.0 150.0] %loadloss=1.249 %noloadloss=0.308
New "Reactor.TRF_1_70 phases=1 bus1="ET1_70.4" R=15 X=0 basefeq=60

...